
     RDKit          2D

 19 20  0  0  0  0  0  0  0  0999 V2000
   -1.1518   -1.6259    0.0000 O   0  0  0  0  0  0  0  0  0  0  0  0
   -2.4556   -0.8844    0.0000 C   0  0  0  0  0  0  0  0  0  0  0  0
   -3.7498   -1.6428    0.0000 C   0  0  0  0  0  0  0  0  0  0  0  0
   -5.0537   -0.9013    0.0000 C   0  0  0  0  0  0  0  0  0  0  0  0
   -6.3478   -1.6597    0.0000 O   0  0  0  0  0  0  0  0  0  0  0  0
   -5.0634    0.5987    0.0000 C   0  0  0  0  0  0  0  0  0  0  0  0
   -3.7693    1.3571    0.0000 C   0  0  0  0  0  0  0  0  0  0  0  0
   -2.4654    0.6156    0.0000 C   0  0  0  0  0  0  0  0  0  0  0  0
   -1.1713    1.3740    0.0000 C   0  0  0  0  0  0  0  0  0  0  0  0
   -1.1810    2.8740    0.0000 O   0  0  0  0  0  0  0  0  0  0  0  0
    0.1326    0.6325    0.0000 C   0  0  0  0  0  0  0  0  0  0  0  0
    1.4268    1.3909    0.0000 C   0  0  0  0  0  0  0  0  0  0  0  0
    2.7307    0.6493    0.0000 C   0  0  0  0  0  0  0  0  0  0  0  0
    2.7404   -0.8506    0.0000 C   0  0  0  0  0  0  0  0  0  0  0  0
    4.0443   -1.5922    0.0000 C   0  0  0  0  0  0  0  0  0  0  0  0
    5.3384   -0.8337    0.0000 C   0  0  0  0  0  0  0  0  0  0  0  0
    6.6423   -1.5753    0.0000 O   0  0  0  0  0  0  0  0  0  0  0  0
    5.3287    0.6662    0.0000 C   0  0  0  0  0  0  0  0  0  0  0  0
    4.0248    1.4078    0.0000 C   0  0  0  0  0  0  0  0  0  0  0  0
  1  2  1  0
  2  3  2  0
  3  4  1  0
  4  5  1  0
  4  6  2  0
  6  7  1  0
  7  8  2  0
  8  9  1  0
  9 10  2  0
  9 11  1  0
 11 12  2  0
 12 13  1  0
 13 14  2  0
 14 15  1  0
 15 16  2  0
 16 17  1  0
 16 18  1  0
 18 19  2  0
  8  2  1  0
 19 13  1  0
M  END
>  <IC50>  (1) 
32.82

>  <cmpdNO>  (1) 
1

$$$$

     RDKit          2D

 20 21  0  0  0  0  0  0  0  0999 V2000
   -1.2908   -1.4127    0.0000 O   0  0  0  0  0  0  0  0  0  0  0  0
   -1.3500   -2.9115    0.0000 C   0  0  0  0  0  0  0  0  0  0  0  0
   -2.5593   -0.6120    0.0000 C   0  0  0  0  0  0  0  0  0  0  0  0
   -3.8869   -1.3102    0.0000 C   0  0  0  0  0  0  0  0  0  0  0  0
   -5.1553   -0.5096    0.0000 C   0  0  0  0  0  0  0  0  0  0  0  0
   -6.4829   -1.2077    0.0000 O   0  0  0  0  0  0  0  0  0  0  0  0
   -5.0961    0.9893    0.0000 C   0  0  0  0  0  0  0  0  0  0  0  0
   -3.7685    1.6875    0.0000 C   0  0  0  0  0  0  0  0  0  0  0  0
   -2.5001    0.8868    0.0000 C   0  0  0  0  0  0  0  0  0  0  0  0
   -1.1725    1.5850    0.0000 C   0  0  0  0  0  0  0  0  0  0  0  0
    0.0960    0.7843    0.0000 C   0  0  0  0  0  0  0  0  0  0  0  0
    1.4236    1.4825    0.0000 C   0  0  0  0  0  0  0  0  0  0  0  0
    1.4827    2.9813    0.0000 O   0  0  0  0  0  0  0  0  0  0  0  0
    2.6920    0.6818    0.0000 C   0  0  0  0  0  0  0  0  0  0  0  0
    2.6329   -0.8170    0.0000 C   0  0  0  0  0  0  0  0  0  0  0  0
    3.9013   -1.6176    0.0000 C   0  0  0  0  0  0  0  0  0  0  0  0
    5.2289   -0.9195    0.0000 C   0  0  0  0  0  0  0  0  0  0  0  0
    6.4974   -1.7201    0.0000 O   0  0  0  0  0  0  0  0  0  0  0  0
    5.2881    0.5794    0.0000 C   0  0  0  0  0  0  0  0  0  0  0  0
    4.0196    1.3800    0.0000 C   0  0  0  0  0  0  0  0  0  0  0  0
  1  2  1  0
  1  3  1  0
  3  4  2  0
  4  5  1  0
  5  6  1  0
  5  7  2  0
  7  8  1  0
  8  9  2  0
  9 10  1  0
 10 11  2  0
 11 12  1  0
 12 13  2  0
 12 14  1  0
 14 15  2  0
 15 16  1  0
 16 17  2  0
 17 18  1  0
 17 19  1  0
 19 20  2  0
  9  3  1  0
 20 14  1  0
M  END
>  <IC50>  (2) 
21.09

>  <cmpdNO>  (2) 
2

$$$$

     RDKit          2D

 29 30  0  0  0  0  0  0  0  0999 V2000
   -0.8343    0.1854    0.0000 O   0  0  0  0  0  0  0  0  0  0  0  0
   -2.0271    1.0949    0.0000 C   0  0  0  0  0  0  0  0  0  0  0  0
   -3.4111    0.5166    0.0000 C   0  0  0  0  0  0  0  0  0  0  0  0
   -3.6023   -0.9712    0.0000 C   0  0  0  0  0  0  0  0  0  0  0  0
   -4.9864   -1.5495    0.0000 C   0  0  0  0  0  0  0  0  0  0  0  0
   -5.1776   -3.0372    0.0000 C   0  0  0  0  0  0  0  0  0  0  0  0
   -6.5616   -3.6155    0.0000 C   0  0  0  0  0  0  0  0  0  0  0  0
   -3.9847   -3.9467    0.0000 C   0  0  0  0  0  0  0  0  0  0  0  0
   -4.6040    1.4261    0.0000 C   0  0  0  0  0  0  0  0  0  0  0  0
   -5.9880    0.8478    0.0000 O   0  0  0  0  0  0  0  0  0  0  0  0
   -4.4128    2.9138    0.0000 C   0  0  0  0  0  0  0  0  0  0  0  0
   -3.0288    3.4921    0.0000 C   0  0  0  0  0  0  0  0  0  0  0  0
   -1.8359    2.5827    0.0000 C   0  0  0  0  0  0  0  0  0  0  0  0
   -0.4519    3.1610    0.0000 C   0  0  0  0  0  0  0  0  0  0  0  0
   -0.2607    4.6487    0.0000 O   0  0  0  0  0  0  0  0  0  0  0  0
    0.7410    2.2515    0.0000 C   0  0  0  0  0  0  0  0  0  0  0  0
    2.1250    2.8298    0.0000 C   0  0  0  0  0  0  0  0  0  0  0  0
    3.3179    1.9203    0.0000 C   0  0  0  0  0  0  0  0  0  0  0  0
    3.1267    0.4326    0.0000 C   0  0  0  0  0  0  0  0  0  0  0  0
    4.3195   -0.4769    0.0000 C   0  0  0  0  0  0  0  0  0  0  0  0
    4.1283   -1.9646    0.0000 C   0  0  0  0  0  0  0  0  0  0  0  0
    2.7443   -2.5429    0.0000 C   0  0  0  0  0  0  0  0  0  0  0  0
    2.5531   -4.0307    0.0000 C   0  0  0  0  0  0  0  0  0  0  0  0
    1.1690   -4.6090    0.0000 C   0  0  0  0  0  0  0  0  0  0  0  0
    3.7459   -4.9402    0.0000 C   0  0  0  0  0  0  0  0  0  0  0  0
    5.7035    0.1014    0.0000 C   0  0  0  0  0  0  0  0  0  0  0  0
    6.8964   -0.8080    0.0000 O   0  0  0  0  0  0  0  0  0  0  0  0
    5.8947    1.5892    0.0000 C   0  0  0  0  0  0  0  0  0  0  0  0
    4.7019    2.4986    0.0000 C   0  0  0  0  0  0  0  0  0  0  0  0
  1  2  1  0
  2  3  2  0
  3  4  1  0
  4  5  1  0
  5  6  2  0
  6  7  1  0
  6  8  1  0
  3  9  1  0
  9 10  1  0
  9 11  2  0
 11 12  1  0
 12 13  2  0
 13 14  1  0
 14 15  2  0
 14 16  1  0
 16 17  2  0
 17 18  1  0
 18 19  2  0
 19 20  1  0
 20 21  1  0
 21 22  1  0
 22 23  2  0
 23 24  1  0
 23 25  1  0
 20 26  2  0
 26 27  1  0
 26 28  1  0
 28 29  2  0
 13  2  1  0
 29 18  1  0
M  END
>  <IC50>  (3) 
192.05

>  <cmpdNO>  (3) 
3

$$$$

     RDKit          2D

 24 25  0  0  0  0  0  0  0  0999 V2000
   -1.5598   -1.0535    0.0000 O   0  0  0  0  0  0  0  0  0  0  0  0
   -3.0130   -0.6817    0.0000 C   0  0  0  0  0  0  0  0  0  0  0  0
   -4.0616   -1.7543    0.0000 C   0  0  0  0  0  0  0  0  0  0  0  0
   -5.5148   -1.3825    0.0000 C   0  0  0  0  0  0  0  0  0  0  0  0
   -6.5634   -2.4551    0.0000 O   0  0  0  0  0  0  0  0  0  0  0  0
   -5.9194    0.0619    0.0000 C   0  0  0  0  0  0  0  0  0  0  0  0
   -4.8708    1.1345    0.0000 C   0  0  0  0  0  0  0  0  0  0  0  0
   -3.4176    0.7627    0.0000 C   0  0  0  0  0  0  0  0  0  0  0  0
   -2.3690    1.8353    0.0000 C   0  0  0  0  0  0  0  0  0  0  0  0
   -2.7736    3.2797    0.0000 O   0  0  0  0  0  0  0  0  0  0  0  0
   -0.9158    1.4635    0.0000 C   0  0  0  0  0  0  0  0  0  0  0  0
    0.1328    2.5361    0.0000 C   0  0  0  0  0  0  0  0  0  0  0  0
    1.5860    2.1642    0.0000 C   0  0  0  0  0  0  0  0  0  0  0  0
    1.9906    0.7198    0.0000 C   0  0  0  0  0  0  0  0  0  0  0  0
    3.4437    0.3480    0.0000 C   0  0  0  0  0  0  0  0  0  0  0  0
    3.8483   -1.0964    0.0000 C   0  0  0  0  0  0  0  0  0  0  0  0
    2.7997   -2.1690    0.0000 C   0  0  0  0  0  0  0  0  0  0  0  0
    3.2043   -3.6134    0.0000 C   0  0  0  0  0  0  0  0  0  0  0  0
    2.1557   -4.6860    0.0000 C   0  0  0  0  0  0  0  0  0  0  0  0
    4.6575   -3.9852    0.0000 C   0  0  0  0  0  0  0  0  0  0  0  0
    4.4923    1.4206    0.0000 C   0  0  0  0  0  0  0  0  0  0  0  0
    5.9455    1.0488    0.0000 O   0  0  0  0  0  0  0  0  0  0  0  0
    4.0878    2.8650    0.0000 C   0  0  0  0  0  0  0  0  0  0  0  0
    2.6346    3.2368    0.0000 C   0  0  0  0  0  0  0  0  0  0  0  0
  1  2  1  0
  2  3  2  0
  3  4  1  0
  4  5  1  0
  4  6  2  0
  6  7  1  0
  7  8  2  0
  8  9  1  0
  9 10  2  0
  9 11  1  0
 11 12  2  0
 12 13  1  0
 13 14  2  0
 14 15  1  0
 15 16  1  0
 16 17  1  0
 17 18  2  0
 18 19  1  0
 18 20  1  0
 15 21  2  0
 21 22  1  0
 21 23  1  0
 23 24  2  0
  8  2  1  0
 24 13  1  0
M  END
>  <IC50>  (4) 
159.04

>  <cmpdNO>  (4) 
4

$$$$

     RDKit          2D

 25 26  0  0  0  0  0  0  0  0999 V2000
   -1.6640   -0.8937    0.0000 O   0  0  0  0  0  0  0  0  0  0  0  0
   -1.3374   -2.3577    0.0000 C   0  0  0  0  0  0  0  0  0  0  0  0
   -3.0952   -0.4445    0.0000 C   0  0  0  0  0  0  0  0  0  0  0  0
   -4.1998   -1.4593    0.0000 C   0  0  0  0  0  0  0  0  0  0  0  0
   -5.6309   -1.0101    0.0000 C   0  0  0  0  0  0  0  0  0  0  0  0
   -6.7355   -2.0250    0.0000 O   0  0  0  0  0  0  0  0  0  0  0  0
   -5.9575    0.4539    0.0000 C   0  0  0  0  0  0  0  0  0  0  0  0
   -4.8529    1.4687    0.0000 C   0  0  0  0  0  0  0  0  0  0  0  0
   -3.4217    1.0195    0.0000 C   0  0  0  0  0  0  0  0  0  0  0  0
   -2.3171    2.0343    0.0000 C   0  0  0  0  0  0  0  0  0  0  0  0
   -0.8860    1.5851    0.0000 C   0  0  0  0  0  0  0  0  0  0  0  0
    0.2186    2.6000    0.0000 C   0  0  0  0  0  0  0  0  0  0  0  0
   -0.1079    4.0640    0.0000 O   0  0  0  0  0  0  0  0  0  0  0  0
    1.6498    2.1508    0.0000 C   0  0  0  0  0  0  0  0  0  0  0  0
    1.9764    0.6867    0.0000 C   0  0  0  0  0  0  0  0  0  0  0  0
    3.4075    0.2375    0.0000 C   0  0  0  0  0  0  0  0  0  0  0  0
    3.7341   -1.2265    0.0000 C   0  0  0  0  0  0  0  0  0  0  0  0
    2.6295   -2.2413    0.0000 C   0  0  0  0  0  0  0  0  0  0  0  0
    2.9561   -3.7053    0.0000 C   0  0  0  0  0  0  0  0  0  0  0  0
    1.8515   -4.7201    0.0000 C   0  0  0  0  0  0  0  0  0  0  0  0
    4.3872   -4.1545    0.0000 C   0  0  0  0  0  0  0  0  0  0  0  0
    4.5121    1.2524    0.0000 C   0  0  0  0  0  0  0  0  0  0  0  0
    5.9433    0.8032    0.0000 O   0  0  0  0  0  0  0  0  0  0  0  0
    4.1855    2.7164    0.0000 C   0  0  0  0  0  0  0  0  0  0  0  0
    2.7544    3.1656    0.0000 C   0  0  0  0  0  0  0  0  0  0  0  0
  1  2  1  0
  1  3  1  0
  3  4  2  0
  4  5  1  0
  5  6  1  0
  5  7  2  0
  7  8  1  0
  8  9  2  0
  9 10  1  0
 10 11  2  0
 11 12  1  0
 12 13  2  0
 12 14  1  0
 14 15  2  0
 15 16  1  0
 16 17  1  0
 17 18  1  0
 18 19  2  0
 19 20  1  0
 19 21  1  0
 16 22  2  0
 22 23  1  0
 22 24  1  0
 24 25  2  0
  9  3  1  0
 25 14  1  0
M  END
>  <IC50>  (5) 
104.05

>  <cmpdNO>  (5) 
5

$$$$

     RDKit          2D

 25 26  0  0  0  0  0  0  0  0999 V2000
   -4.6419   -3.0320    0.0000 O   0  0  0  0  0  0  0  0  0  0  0  0
   -3.4685   -2.0976    0.0000 C   0  0  0  0  0  0  0  0  0  0  0  0
   -3.6909   -0.6142    0.0000 C   0  0  0  0  0  0  0  0  0  0  0  0
   -2.5175    0.3201    0.0000 C   0  0  0  0  0  0  0  0  0  0  0  0
   -1.1216   -0.2289    0.0000 C   0  0  0  0  0  0  0  0  0  0  0  0
   -0.8991   -1.7123    0.0000 C   0  0  0  0  0  0  0  0  0  0  0  0
   -2.0726   -2.6467    0.0000 C   0  0  0  0  0  0  0  0  0  0  0  0
   -1.8501   -4.1301    0.0000 O   0  0  0  0  0  0  0  0  0  0  0  0
    0.0518    0.7055    0.0000 C   0  0  0  0  0  0  0  0  0  0  0  0
    1.4477    0.1565    0.0000 C   0  0  0  0  0  0  0  0  0  0  0  0
    2.6212    1.0908    0.0000 C   0  0  0  0  0  0  0  0  0  0  0  0
    2.3987    2.5742    0.0000 O   0  0  0  0  0  0  0  0  0  0  0  0
    4.0171    0.5418    0.0000 C   0  0  0  0  0  0  0  0  0  0  0  0
    4.2396   -0.9416    0.0000 C   0  0  0  0  0  0  0  0  0  0  0  0
    5.6355   -1.4906    0.0000 C   0  0  0  0  0  0  0  0  0  0  0  0
    6.8089   -0.5562    0.0000 C   0  0  0  0  0  0  0  0  0  0  0  0
    8.2048   -1.1053    0.0000 O   0  0  0  0  0  0  0  0  0  0  0  0
    6.5864    0.9272    0.0000 C   0  0  0  0  0  0  0  0  0  0  0  0
    5.1905    1.4762    0.0000 C   0  0  0  0  0  0  0  0  0  0  0  0
    4.9680    2.9596    0.0000 O   0  0  0  0  0  0  0  0  0  0  0  0
   -5.0869   -0.0652    0.0000 C   0  0  0  0  0  0  0  0  0  0  0  0
   -5.3093    1.4182    0.0000 C   0  0  0  0  0  0  0  0  0  0  0  0
   -6.7053    1.9672    0.0000 C   0  0  0  0  0  0  0  0  0  0  0  0
   -6.9277    3.4506    0.0000 C   0  0  0  0  0  0  0  0  0  0  0  0
   -7.8787    1.0328    0.0000 C   0  0  0  0  0  0  0  0  0  0  0  0
  1  2  1  0
  2  3  2  0
  3  4  1  0
  4  5  2  0
  5  6  1  0
  6  7  2  0
  7  8  1  0
  5  9  1  0
  9 10  2  0
 10 11  1  0
 11 12  2  0
 11 13  1  0
 13 14  2  0
 14 15  1  0
 15 16  2  0
 16 17  1  0
 16 18  1  0
 18 19  2  0
 19 20  1  0
  3 21  1  0
 21 22  1  0
 22 23  2  0
 23 24  1  0
 23 25  1  0
  7  2  1  0
 19 13  1  0
M  END
>  <IC50>  (6) 
76

>  <cmpdNO>  (6) 
6

$$$$

     RDKit          2D

 25 26  0  0  0  0  0  0  0  0999 V2000
    0.3571   -1.7764    0.0000 O   0  0  0  0  0  0  0  0  0  0  0  0
    0.4820   -3.2712    0.0000 C   0  0  0  0  0  0  0  0  0  0  0  0
   -0.9999   -1.1373    0.0000 C   0  0  0  0  0  0  0  0  0  0  0  0
   -2.2320   -1.9929    0.0000 C   0  0  0  0  0  0  0  0  0  0  0  0
   -3.5890   -1.3537    0.0000 C   0  0  0  0  0  0  0  0  0  0  0  0
   -4.8210   -2.2093    0.0000 O   0  0  0  0  0  0  0  0  0  0  0  0
   -3.7139    0.1411    0.0000 C   0  0  0  0  0  0  0  0  0  0  0  0
   -2.4819    0.9967    0.0000 C   0  0  0  0  0  0  0  0  0  0  0  0
   -1.1249    0.3575    0.0000 C   0  0  0  0  0  0  0  0  0  0  0  0
    0.1072    1.2131    0.0000 C   0  0  0  0  0  0  0  0  0  0  0  0
    1.4642    0.5740    0.0000 C   0  0  0  0  0  0  0  0  0  0  0  0
    2.6962    1.4296    0.0000 C   0  0  0  0  0  0  0  0  0  0  0  0
    2.5713    2.9244    0.0000 O   0  0  0  0  0  0  0  0  0  0  0  0
    4.0532    0.7904    0.0000 C   0  0  0  0  0  0  0  0  0  0  0  0
    4.1782   -0.7044    0.0000 C   0  0  0  0  0  0  0  0  0  0  0  0
    5.5352   -1.3436    0.0000 C   0  0  0  0  0  0  0  0  0  0  0  0
    6.7672   -0.4880    0.0000 C   0  0  0  0  0  0  0  0  0  0  0  0
    8.1242   -1.1271    0.0000 O   0  0  0  0  0  0  0  0  0  0  0  0
    6.6423    1.0068    0.0000 C   0  0  0  0  0  0  0  0  0  0  0  0
    5.2853    1.6460    0.0000 C   0  0  0  0  0  0  0  0  0  0  0  0
   -5.0709    0.7803    0.0000 C   0  0  0  0  0  0  0  0  0  0  0  0
   -6.4279    1.4195    0.0000 C   0  0  0  0  0  0  0  0  0  0  0  0
   -7.6600    0.5639    0.0000 C   0  0  0  0  0  0  0  0  0  0  0  0
   -4.4318    2.1373    0.0000 C   0  0  0  0  0  0  0  0  0  0  0  0
   -5.7101   -0.5767    0.0000 C   0  0  0  0  0  0  0  0  0  0  0  0
  1  2  1  0
  1  3  1  0
  3  4  2  0
  4  5  1  0
  5  6  1  0
  5  7  2  0
  7  8  1  0
  8  9  2  0
  9 10  1  0
 10 11  2  0
 11 12  1  0
 12 13  2  0
 12 14  1  0
 14 15  2  0
 15 16  1  0
 16 17  2  0
 17 18  1  0
 17 19  1  0
 19 20  2  0
  7 21  1  0
 21 22  1  0
 22 23  2  0
 21 24  1  0
 21 25  1  0
  9  3  1  0
 20 14  1  0
M  END
>  <IC50>  (7) 
56.41

>  <cmpdNO>  (7) 
7

$$$$

     RDKit          2D

 26 27  0  0  0  0  0  0  0  0999 V2000
    0.0953   -1.9015    0.0000 O   0  0  0  0  0  0  0  0  0  0  0  0
    0.1703   -3.3996    0.0000 C   0  0  0  0  0  0  0  0  0  0  0  0
   -1.2397   -1.2174    0.0000 C   0  0  0  0  0  0  0  0  0  0  0  0
   -2.4995   -2.0315    0.0000 C   0  0  0  0  0  0  0  0  0  0  0  0
   -3.8345   -1.3474    0.0000 C   0  0  0  0  0  0  0  0  0  0  0  0
   -5.0944   -2.1615    0.0000 O   0  0  0  0  0  0  0  0  0  0  0  0
   -3.9096    0.1507    0.0000 C   0  0  0  0  0  0  0  0  0  0  0  0
   -2.6497    0.9648    0.0000 C   0  0  0  0  0  0  0  0  0  0  0  0
   -1.3147    0.2807    0.0000 C   0  0  0  0  0  0  0  0  0  0  0  0
   -0.0549    1.0948    0.0000 C   0  0  0  0  0  0  0  0  0  0  0  0
    1.2801    0.4107    0.0000 C   0  0  0  0  0  0  0  0  0  0  0  0
    2.5400    1.2248    0.0000 C   0  0  0  0  0  0  0  0  0  0  0  0
    2.4649    2.7229    0.0000 O   0  0  0  0  0  0  0  0  0  0  0  0
    3.8749    0.5407    0.0000 C   0  0  0  0  0  0  0  0  0  0  0  0
    3.9500   -0.9574    0.0000 C   0  0  0  0  0  0  0  0  0  0  0  0
    5.2849   -1.6414    0.0000 C   0  0  0  0  0  0  0  0  0  0  0  0
    6.5448   -0.8274    0.0000 C   0  0  0  0  0  0  0  0  0  0  0  0
    7.8797   -1.5114    0.0000 O   0  0  0  0  0  0  0  0  0  0  0  0
    6.4697    0.6708    0.0000 C   0  0  0  0  0  0  0  0  0  0  0  0
    5.1348    1.3548    0.0000 C   0  0  0  0  0  0  0  0  0  0  0  0
    5.0597    2.8529    0.0000 O   0  0  0  0  0  0  0  0  0  0  0  0
   -5.2445    0.8347    0.0000 C   0  0  0  0  0  0  0  0  0  0  0  0
   -6.5794    1.5188    0.0000 C   0  0  0  0  0  0  0  0  0  0  0  0
   -7.8393    0.7047    0.0000 C   0  0  0  0  0  0  0  0  0  0  0  0
   -4.5604    2.1697    0.0000 C   0  0  0  0  0  0  0  0  0  0  0  0
   -5.9285   -0.5002    0.0000 C   0  0  0  0  0  0  0  0  0  0  0  0
  1  2  1  0
  1  3  1  0
  3  4  2  0
  4  5  1  0
  5  6  1  0
  5  7  2  0
  7  8  1  0
  8  9  2  0
  9 10  1  0
 10 11  2  0
 11 12  1  0
 12 13  2  0
 12 14  1  0
 14 15  2  0
 15 16  1  0
 16 17  2  0
 17 18  1  0
 17 19  1  0
 19 20  2  0
 20 21  1  0
  7 22  1  0
 22 23  1  0
 23 24  2  0
 22 25  1  0
 22 26  1  0
  9  3  1  0
 20 14  1  0
M  END
>  <IC50>  (8) 
106.32

>  <cmpdNO>  (8) 
8

$$$$

     RDKit          2D

 25 26  0  0  0  0  0  0  0  0999 V2000
    1.0459    1.2254    0.0000 S   0  0  0  0  0  0  0  0  0  0  0  0
    0.8006   -0.2544    0.0000 C   0  0  0  0  0  0  0  0  0  0  0  0
    1.9594   -1.2068    0.0000 N   0  0  0  0  0  0  0  0  0  0  0  0
    3.3636   -0.6793    0.0000 C   0  0  0  0  0  0  0  0  0  0  0  0
    4.5225   -1.6317    0.0000 N   0  0  0  0  0  0  0  0  0  0  0  0
    5.9267   -1.1043    0.0000 C   0  0  0  0  0  0  0  0  0  0  0  0
    7.0856   -2.0567    0.0000 O   0  0  0  0  0  0  0  0  0  0  0  0
    6.8402   -3.5365    0.0000 C   0  0  0  0  0  0  0  0  0  0  0  0
    6.1721    0.3755    0.0000 C   0  0  0  0  0  0  0  0  0  0  0  0
    5.0132    1.3279    0.0000 C   0  0  0  0  0  0  0  0  0  0  0  0
    5.2586    2.8077    0.0000 O   0  0  0  0  0  0  0  0  0  0  0  0
    6.6628    3.3351    0.0000 C   0  0  0  0  0  0  0  0  0  0  0  0
    3.6090    0.8005    0.0000 N   0  0  0  0  0  0  0  0  0  0  0  0
   -0.6037   -0.7818    0.0000 N   0  0  0  0  0  0  0  0  0  0  0  0
   -1.7625    0.1706    0.0000 C   0  0  0  0  0  0  0  0  0  0  0  0
   -1.5172    1.6504    0.0000 O   0  0  0  0  0  0  0  0  0  0  0  0
   -3.1667   -0.3568    0.0000 N   0  0  0  0  0  0  0  0  0  0  0  0
   -4.3256    0.5956    0.0000 C   0  0  0  0  0  0  0  0  0  0  0  0
   -4.0803    2.0754    0.0000 O   0  0  0  0  0  0  0  0  0  0  0  0
   -5.7298    0.0682    0.0000 C   0  0  0  0  0  0  0  0  0  0  0  0
   -6.8887    1.0205    0.0000 C   0  0  0  0  0  0  0  0  0  0  0  0
   -8.2929    0.4931    0.0000 C   0  0  0  0  0  0  0  0  0  0  0  0
   -8.5383   -0.9867    0.0000 N   0  0  0  0  0  0  0  0  0  0  0  0
   -7.3794   -1.9391    0.0000 C   0  0  0  0  0  0  0  0  0  0  0  0
   -5.9752   -1.4116    0.0000 C   0  0  0  0  0  0  0  0  0  0  0  0
  1  2  2  0
  2  3  1  0
  3  4  1  0
  4  5  2  0
  5  6  1  0
  6  7  1  0
  7  8  1  0
  6  9  2  0
  9 10  1  0
 10 11  1  0
 11 12  1  0
 10 13  2  0
  2 14  1  0
 14 15  1  0
 15 16  2  0
 15 17  1  0
 17 18  1  0
 18 19  2  0
 18 20  1  0
 20 21  2  0
 21 22  1  0
 22 23  2  0
 23 24  1  0
 24 25  2  0
 13  4  1  0
 25 20  1  0
M  END
>  <IC50>  (9) 
>20

>  <cmpdNO>  (9) 
9

$$$$

     RDKit          2D

 25 26  0  0  0  0  0  0  0  0999 V2000
   -4.3082   -2.2332    0.0000 Cl  0  0  0  0  0  0  0  0  0  0  0  0
   -5.4881   -1.3070    0.0000 C   0  0  0  0  0  0  0  0  0  0  0  0
   -6.8801   -1.8658    0.0000 C   0  0  0  0  0  0  0  0  0  0  0  0
   -8.0601   -0.9396    0.0000 N   0  0  0  0  0  0  0  0  0  0  0  0
   -7.8479    0.5453    0.0000 C   0  0  0  0  0  0  0  0  0  0  0  0
   -6.4559    1.1041    0.0000 C   0  0  0  0  0  0  0  0  0  0  0  0
   -5.2760    0.1779    0.0000 C   0  0  0  0  0  0  0  0  0  0  0  0
   -3.8839    0.7366    0.0000 C   0  0  0  0  0  0  0  0  0  0  0  0
   -3.6718    2.2216    0.0000 O   0  0  0  0  0  0  0  0  0  0  0  0
   -2.7040   -0.1895    0.0000 N   0  0  0  0  0  0  0  0  0  0  0  0
   -1.3120    0.3692    0.0000 C   0  0  0  0  0  0  0  0  0  0  0  0
   -1.0998    1.8542    0.0000 O   0  0  0  0  0  0  0  0  0  0  0  0
   -0.1320   -0.5569    0.0000 N   0  0  0  0  0  0  0  0  0  0  0  0
    1.2600    0.0018    0.0000 C   0  0  0  0  0  0  0  0  0  0  0  0
    1.4721    1.4868    0.0000 S   0  0  0  0  0  0  0  0  0  0  0  0
    2.4399   -0.9243    0.0000 N   0  0  0  0  0  0  0  0  0  0  0  0
    3.8320   -0.3656    0.0000 C   0  0  0  0  0  0  0  0  0  0  0  0
    5.0119   -1.2917    0.0000 N   0  0  0  0  0  0  0  0  0  0  0  0
    6.4039   -0.7330    0.0000 C   0  0  0  0  0  0  0  0  0  0  0  0
    6.6161    0.7520    0.0000 C   0  0  0  0  0  0  0  0  0  0  0  0
    5.4361    1.6781    0.0000 C   0  0  0  0  0  0  0  0  0  0  0  0
    5.6483    3.1630    0.0000 Cl  0  0  0  0  0  0  0  0  0  0  0  0
    4.0441    1.1194    0.0000 N   0  0  0  0  0  0  0  0  0  0  0  0
    7.5839   -1.6591    0.0000 C   0  0  0  0  0  0  0  0  0  0  0  0
    7.3717   -3.1441    0.0000 C   0  0  0  0  0  0  0  0  0  0  0  0
  1  2  1  0
  2  3  2  0
  3  4  1  0
  4  5  2  0
  5  6  1  0
  6  7  2  0
  7  8  1  0
  8  9  2  0
  8 10  1  0
 10 11  1  0
 11 12  2  0
 11 13  1  0
 13 14  1  0
 14 15  2  0
 14 16  1  0
 16 17  1  0
 17 18  2  0
 18 19  1  0
 19 20  2  0
 20 21  1  0
 21 22  1  0
 21 23  2  0
 19 24  1  0
 24 25  1  0
  7  2  1  0
 23 17  1  0
M  END
>  <IC50>  (10) 
>20

>  <cmpdNO>  (10) 
10

$$$$

     RDKit          2D

 27 28  0  0  0  0  0  0  0  0999 V2000
   -5.0468   -2.1226    0.0000 Cl  0  0  0  0  0  0  0  0  0  0  0  0
   -6.1395   -1.0950    0.0000 C   0  0  0  0  0  0  0  0  0  0  0  0
   -7.5758   -1.5274    0.0000 C   0  0  0  0  0  0  0  0  0  0  0  0
   -8.6685   -0.4998    0.0000 N   0  0  0  0  0  0  0  0  0  0  0  0
   -8.3248    0.9603    0.0000 C   0  0  0  0  0  0  0  0  0  0  0  0
   -6.8885    1.3928    0.0000 C   0  0  0  0  0  0  0  0  0  0  0  0
   -5.7959    0.3652    0.0000 C   0  0  0  0  0  0  0  0  0  0  0  0
   -4.3596    0.7976    0.0000 C   0  0  0  0  0  0  0  0  0  0  0  0
   -4.0159    2.2578    0.0000 O   0  0  0  0  0  0  0  0  0  0  0  0
   -3.2669   -0.2300    0.0000 N   0  0  0  0  0  0  0  0  0  0  0  0
   -1.8306    0.2025    0.0000 C   0  0  0  0  0  0  0  0  0  0  0  0
   -1.4870    1.6626    0.0000 O   0  0  0  0  0  0  0  0  0  0  0  0
   -0.7379   -0.8251    0.0000 N   0  0  0  0  0  0  0  0  0  0  0  0
    0.6984   -0.3927    0.0000 C   0  0  0  0  0  0  0  0  0  0  0  0
    1.0420    1.0675    0.0000 S   0  0  0  0  0  0  0  0  0  0  0  0
    1.7911   -1.4203    0.0000 N   0  0  0  0  0  0  0  0  0  0  0  0
    3.2274   -0.9878    0.0000 C   0  0  0  0  0  0  0  0  0  0  0  0
    4.3201   -2.0154    0.0000 N   0  0  0  0  0  0  0  0  0  0  0  0
    5.7564   -1.5830    0.0000 C   0  0  0  0  0  0  0  0  0  0  0  0
    6.1000   -0.1228    0.0000 C   0  0  0  0  0  0  0  0  0  0  0  0
    5.0073    0.9048    0.0000 C   0  0  0  0  0  0  0  0  0  0  0  0
    5.3509    2.3649    0.0000 O   0  0  0  0  0  0  0  0  0  0  0  0
    6.7872    2.7974    0.0000 C   0  0  0  0  0  0  0  0  0  0  0  0
    7.1308    4.2575    0.0000 C   0  0  0  0  0  0  0  0  0  0  0  0
    3.5710    0.4723    0.0000 N   0  0  0  0  0  0  0  0  0  0  0  0
    6.8491   -2.6106    0.0000 C   0  0  0  0  0  0  0  0  0  0  0  0
    6.5055   -4.0707    0.0000 C   0  0  0  0  0  0  0  0  0  0  0  0
  1  2  1  0
  2  3  2  0
  3  4  1  0
  4  5  2  0
  5  6  1  0
  6  7  2  0
  7  8  1  0
  8  9  2  0
  8 10  1  0
 10 11  1  0
 11 12  2  0
 11 13  1  0
 13 14  1  0
 14 15  2  0
 14 16  1  0
 16 17  1  0
 17 18  2  0
 18 19  1  0
 19 20  2  0
 20 21  1  0
 21 22  1  0
 22 23  1  0
 23 24  1  0
 21 25  2  0
 19 26  1  0
 26 27  1  0
  7  2  1  0
 25 17  1  0
M  END
>  <IC50>  (11) 
>20

>  <cmpdNO>  (11) 
11

$$$$

     RDKit          2D

 27 28  0  0  0  0  0  0  0  0999 V2000
   -7.8659   -2.8116    0.0000 Cl  0  0  0  0  0  0  0  0  0  0  0  0
   -7.4956   -1.3580    0.0000 C   0  0  0  0  0  0  0  0  0  0  0  0
   -8.5692   -0.3105    0.0000 N   0  0  0  0  0  0  0  0  0  0  0  0
   -8.1989    1.1430    0.0000 C   0  0  0  0  0  0  0  0  0  0  0  0
   -6.7549    1.5491    0.0000 C   0  0  0  0  0  0  0  0  0  0  0  0
   -5.6812    0.5016    0.0000 C   0  0  0  0  0  0  0  0  0  0  0  0
   -6.0516   -0.9520    0.0000 C   0  0  0  0  0  0  0  0  0  0  0  0
   -4.2372    0.9076    0.0000 C   0  0  0  0  0  0  0  0  0  0  0  0
   -3.8669    2.3612    0.0000 O   0  0  0  0  0  0  0  0  0  0  0  0
   -3.1636   -0.1399    0.0000 N   0  0  0  0  0  0  0  0  0  0  0  0
   -1.7196    0.2661    0.0000 C   0  0  0  0  0  0  0  0  0  0  0  0
   -1.3492    1.7197    0.0000 O   0  0  0  0  0  0  0  0  0  0  0  0
   -0.6459   -0.7814    0.0000 N   0  0  0  0  0  0  0  0  0  0  0  0
    0.7981   -0.3753    0.0000 C   0  0  0  0  0  0  0  0  0  0  0  0
    1.1684    1.0782    0.0000 S   0  0  0  0  0  0  0  0  0  0  0  0
    1.8717   -1.4228    0.0000 N   0  0  0  0  0  0  0  0  0  0  0  0
    3.3157   -1.0168    0.0000 C   0  0  0  0  0  0  0  0  0  0  0  0
    4.3893   -2.0643    0.0000 N   0  0  0  0  0  0  0  0  0  0  0  0
    5.8333   -1.6583    0.0000 C   0  0  0  0  0  0  0  0  0  0  0  0
    6.2037   -0.2047    0.0000 C   0  0  0  0  0  0  0  0  0  0  0  0
    5.1301    0.8428    0.0000 C   0  0  0  0  0  0  0  0  0  0  0  0
    5.5004    2.2964    0.0000 O   0  0  0  0  0  0  0  0  0  0  0  0
    6.9444    2.7024    0.0000 C   0  0  0  0  0  0  0  0  0  0  0  0
    7.3148    4.1560    0.0000 C   0  0  0  0  0  0  0  0  0  0  0  0
    3.6861    0.4368    0.0000 N   0  0  0  0  0  0  0  0  0  0  0  0
    6.9070   -2.7058    0.0000 C   0  0  0  0  0  0  0  0  0  0  0  0
    6.5366   -4.1594    0.0000 C   0  0  0  0  0  0  0  0  0  0  0  0
  1  2  1  0
  2  3  2  0
  3  4  1  0
  4  5  2  0
  5  6  1  0
  6  7  2  0
  6  8  1  0
  8  9  2  0
  8 10  1  0
 10 11  1  0
 11 12  2  0
 11 13  1  0
 13 14  1  0
 14 15  2  0
 14 16  1  0
 16 17  1  0
 17 18  2  0
 18 19  1  0
 19 20  2  0
 20 21  1  0
 21 22  1  0
 22 23  1  0
 23 24  1  0
 21 25  2  0
 19 26  1  0
 26 27  1  0
  7  2  1  0
 25 17  1  0
M  END
>  <IC50>  (12) 
>20

>  <cmpdNO>  (12) 
12

$$$$

     RDKit          2D

 24 25  0  0  0  0  0  0  0  0999 V2000
    8.0758   -1.9932    0.0000 Cl  0  0  0  0  0  0  0  0  0  0  0  0
    6.9015   -1.0600    0.0000 C   0  0  0  0  0  0  0  0  0  0  0  0
    5.5061   -1.6103    0.0000 N   0  0  0  0  0  0  0  0  0  0  0  0
    4.3318   -0.6771    0.0000 C   0  0  0  0  0  0  0  0  0  0  0  0
    4.5528    0.8066    0.0000 N   0  0  0  0  0  0  0  0  0  0  0  0
    5.9482    1.3569    0.0000 C   0  0  0  0  0  0  0  0  0  0  0  0
    7.1225    0.4237    0.0000 C   0  0  0  0  0  0  0  0  0  0  0  0
    6.1693    2.8405    0.0000 C   0  0  0  0  0  0  0  0  0  0  0  0
    2.9364   -1.2274    0.0000 N   0  0  0  0  0  0  0  0  0  0  0  0
    1.7621   -0.2942    0.0000 C   0  0  0  0  0  0  0  0  0  0  0  0
    1.9831    1.1895    0.0000 S   0  0  0  0  0  0  0  0  0  0  0  0
    0.3667   -0.8445    0.0000 N   0  0  0  0  0  0  0  0  0  0  0  0
   -0.8076    0.0887    0.0000 C   0  0  0  0  0  0  0  0  0  0  0  0
   -0.5866    1.5724    0.0000 O   0  0  0  0  0  0  0  0  0  0  0  0
   -2.2030   -0.4616    0.0000 N   0  0  0  0  0  0  0  0  0  0  0  0
   -3.3773    0.4717    0.0000 C   0  0  0  0  0  0  0  0  0  0  0  0
   -3.1563    1.9553    0.0000 O   0  0  0  0  0  0  0  0  0  0  0  0
   -4.7727   -0.0787    0.0000 C   0  0  0  0  0  0  0  0  0  0  0  0
   -5.9470    0.8546    0.0000 C   0  0  0  0  0  0  0  0  0  0  0  0
   -7.3424    0.3042    0.0000 C   0  0  0  0  0  0  0  0  0  0  0  0
   -8.5168    1.2375    0.0000 Cl  0  0  0  0  0  0  0  0  0  0  0  0
   -7.5635   -1.1794    0.0000 N   0  0  0  0  0  0  0  0  0  0  0  0
   -6.3892   -2.1127    0.0000 C   0  0  0  0  0  0  0  0  0  0  0  0
   -4.9938   -1.5623    0.0000 C   0  0  0  0  0  0  0  0  0  0  0  0
  1  2  1  0
  2  3  2  0
  3  4  1  0
  4  5  2  0
  5  6  1  0
  6  7  2  0
  6  8  1  0
  4  9  1  0
  9 10  1  0
 10 11  2  0
 10 12  1  0
 12 13  1  0
 13 14  2  0
 13 15  1  0
 15 16  1  0
 16 17  2  0
 16 18  1  0
 18 19  2  0
 19 20  1  0
 20 21  1  0
 20 22  2  0
 22 23  1  0
 23 24  2  0
  7  2  1  0
 24 18  1  0
M  END
>  <IC50>  (13) 
>20

>  <cmpdNO>  (13) 
13

$$$$

     RDKit          2D

 24 25  0  0  0  0  0  0  0  0999 V2000
   -6.8805   -2.9894    0.0000 Cl  0  0  0  0  0  0  0  0  0  0  0  0
   -6.5712   -1.5216    0.0000 C   0  0  0  0  0  0  0  0  0  0  0  0
   -7.6877   -0.5199    0.0000 N   0  0  0  0  0  0  0  0  0  0  0  0
   -7.3784    0.9479    0.0000 C   0  0  0  0  0  0  0  0  0  0  0  0
   -5.9527    1.4139    0.0000 C   0  0  0  0  0  0  0  0  0  0  0  0
   -4.8362    0.4122    0.0000 C   0  0  0  0  0  0  0  0  0  0  0  0
   -5.1454   -1.0556    0.0000 C   0  0  0  0  0  0  0  0  0  0  0  0
   -3.4104    0.8783    0.0000 C   0  0  0  0  0  0  0  0  0  0  0  0
   -3.1012    2.3460    0.0000 O   0  0  0  0  0  0  0  0  0  0  0  0
   -2.2939   -0.1235    0.0000 N   0  0  0  0  0  0  0  0  0  0  0  0
   -0.8682    0.3426    0.0000 C   0  0  0  0  0  0  0  0  0  0  0  0
   -0.5589    1.8104    0.0000 O   0  0  0  0  0  0  0  0  0  0  0  0
    0.2483   -0.6591    0.0000 N   0  0  0  0  0  0  0  0  0  0  0  0
    1.6741   -0.1931    0.0000 C   0  0  0  0  0  0  0  0  0  0  0  0
    1.9833    1.2747    0.0000 S   0  0  0  0  0  0  0  0  0  0  0  0
    2.7906   -1.1948    0.0000 N   0  0  0  0  0  0  0  0  0  0  0  0
    4.2163   -0.7287    0.0000 C   0  0  0  0  0  0  0  0  0  0  0  0
    5.3328   -1.7304    0.0000 N   0  0  0  0  0  0  0  0  0  0  0  0
    6.7586   -1.2644    0.0000 C   0  0  0  0  0  0  0  0  0  0  0  0
    7.0679    0.2034    0.0000 C   0  0  0  0  0  0  0  0  0  0  0  0
    5.9514    1.2051    0.0000 C   0  0  0  0  0  0  0  0  0  0  0  0
    4.5256    0.7391    0.0000 N   0  0  0  0  0  0  0  0  0  0  0  0
    6.2606    2.6729    0.0000 C   0  0  0  0  0  0  0  0  0  0  0  0
    7.8751   -2.2661    0.0000 C   0  0  0  0  0  0  0  0  0  0  0  0
  1  2  1  0
  2  3  2  0
  3  4  1  0
  4  5  2  0
  5  6  1  0
  6  7  2  0
  6  8  1  0
  8  9  2  0
  8 10  1  0
 10 11  1  0
 11 12  2  0
 11 13  1  0
 13 14  1  0
 14 15  2  0
 14 16  1  0
 16 17  1  0
 17 18  2  0
 18 19  1  0
 19 20  2  0
 20 21  1  0
 21 22  2  0
 21 23  1  0
 19 24  1  0
  7  2  1  0
 22 17  1  0
M  END
>  <IC50>  (14) 
>20

>  <cmpdNO>  (14) 
14

$$$$

     RDKit          2D

 32 34  0  0  0  0  0  0  0  0999 V2000
    2.4119    1.9464    0.0000 S   0  0  0  0  0  0  0  0  0  0  0  0
    1.7664    0.5924    0.0000 C   0  0  0  0  0  0  0  0  0  0  0  0
    2.6162   -0.6436    0.0000 N   0  0  0  0  0  0  0  0  0  0  0  0
    4.1116   -0.5256    0.0000 C   0  0  0  0  0  0  0  0  0  0  0  0
    4.9615   -1.7616    0.0000 N   0  0  0  0  0  0  0  0  0  0  0  0
    6.4568   -1.6436    0.0000 C   0  0  0  0  0  0  0  0  0  0  0  0
    7.3067   -2.8796    0.0000 O   0  0  0  0  0  0  0  0  0  0  0  0
    6.6612   -4.2336    0.0000 C   0  0  0  0  0  0  0  0  0  0  0  0
    7.5110   -5.4696    0.0000 C   0  0  0  0  0  0  0  0  0  0  0  0
    7.1023   -0.2896    0.0000 C   0  0  0  0  0  0  0  0  0  0  0  0
    6.2524    0.9464    0.0000 C   0  0  0  0  0  0  0  0  0  0  0  0
    6.8979    2.3004    0.0000 O   0  0  0  0  0  0  0  0  0  0  0  0
    8.3933    2.4184    0.0000 C   0  0  0  0  0  0  0  0  0  0  0  0
    9.0387    3.7724    0.0000 C   0  0  0  0  0  0  0  0  0  0  0  0
    4.7571    0.8284    0.0000 N   0  0  0  0  0  0  0  0  0  0  0  0
    0.2710    0.4744    0.0000 N   0  0  0  0  0  0  0  0  0  0  0  0
   -0.5788    1.7104    0.0000 C   0  0  0  0  0  0  0  0  0  0  0  0
    0.0666    3.0645    0.0000 O   0  0  0  0  0  0  0  0  0  0  0  0
   -2.0742    1.5924    0.0000 C   0  0  0  0  0  0  0  0  0  0  0  0
   -2.8577    0.3133    0.0000 C   0  0  0  0  0  0  0  0  0  0  0  0
   -4.3163    0.6632    0.0000 C   0  0  0  0  0  0  0  0  0  0  0  0
   -4.4343    2.1585    0.0000 C   0  0  0  0  0  0  0  0  0  0  0  0
   -3.0486    2.7328    0.0000 C   0  0  0  0  0  0  0  0  0  0  0  0
   -5.4567   -0.3112    0.0000 C   0  0  0  0  0  0  0  0  0  0  0  0
   -6.8708    0.1892    0.0000 C   0  0  0  0  0  0  0  0  0  0  0  0
   -8.0112   -0.7852    0.0000 C   0  0  0  0  0  0  0  0  0  0  0  0
   -9.4253   -0.2848    0.0000 N   0  0  0  0  0  0  0  0  0  0  0  0
  -10.5657   -1.2592    0.0000 O   0  0  0  0  0  0  0  0  0  0  0  0
   -9.6989    1.1900    0.0000 O   0  0  0  0  0  0  0  0  0  0  0  0
   -7.7375   -2.2600    0.0000 C   0  0  0  0  0  0  0  0  0  0  0  0
   -6.3235   -2.7605    0.0000 C   0  0  0  0  0  0  0  0  0  0  0  0
   -5.1831   -1.7860    0.0000 C   0  0  0  0  0  0  0  0  0  0  0  0
  1  2  2  0
  2  3  1  0
  3  4  1  0
  4  5  2  0
  5  6  1  0
  6  7  1  0
  7  8  1  0
  8  9  1  0
  6 10  2  0
 10 11  1  0
 11 12  1  0
 12 13  1  0
 13 14  1  0
 11 15  2  0
  2 16  1  0
 16 17  1  0
 17 18  2  0
 17 19  1  0
 19 20  1  0
 20 21  1  0
 21 22  2  0
 22 23  1  0
 21 24  1  0
 24 25  2  0
 25 26  1  0
 26 27  1  0
 27 28  2  0
 27 29  1  0
 26 30  2  0
 30 31  1  0
 31 32  2  0
 15  4  1  0
 19 23  2  0
 32 24  1  0
M  CHG  2  27   1  29  -1
M  END
>  <IC50>  (15) 
>20

>  <cmpdNO>  (15) 
15

$$$$

     RDKit          2D

 27 29  0  0  0  0  0  0  0  0999 V2000
    7.9952   -2.9613    0.0000 Cl  0  0  0  0  0  0  0  0  0  0  0  0
    7.6026   -1.5135    0.0000 C   0  0  0  0  0  0  0  0  0  0  0  0
    6.1526   -1.1297    0.0000 C   0  0  0  0  0  0  0  0  0  0  0  0
    5.7600    0.3181    0.0000 C   0  0  0  0  0  0  0  0  0  0  0  0
    6.8175    1.3819    0.0000 C   0  0  0  0  0  0  0  0  0  0  0  0
    8.2675    0.9980    0.0000 C   0  0  0  0  0  0  0  0  0  0  0  0
    8.6601   -0.4497    0.0000 C   0  0  0  0  0  0  0  0  0  0  0  0
    4.3100    0.7020    0.0000 C   0  0  0  0  0  0  0  0  0  0  0  0
    3.1471   -0.2455    0.0000 C   0  0  0  0  0  0  0  0  0  0  0  0
    1.8866    0.5677    0.0000 C   0  0  0  0  0  0  0  0  0  0  0  0
    2.2705    2.0177    0.0000 C   0  0  0  0  0  0  0  0  0  0  0  0
    3.7682    2.1007    0.0000 C   0  0  0  0  0  0  0  0  0  0  0  0
    0.4879    0.0259    0.0000 C   0  0  0  0  0  0  0  0  0  0  0  0
    0.2577   -1.4563    0.0000 O   0  0  0  0  0  0  0  0  0  0  0  0
   -0.6807    0.9664    0.0000 N   0  0  0  0  0  0  0  0  0  0  0  0
   -2.0794    0.4247    0.0000 C   0  0  0  0  0  0  0  0  0  0  0  0
   -2.3096   -1.0576    0.0000 S   0  0  0  0  0  0  0  0  0  0  0  0
   -3.2480    1.3652    0.0000 N   0  0  0  0  0  0  0  0  0  0  0  0
   -4.6467    0.8234    0.0000 C   0  0  0  0  0  0  0  0  0  0  0  0
   -5.8153    1.7639    0.0000 N   0  0  0  0  0  0  0  0  0  0  0  0
   -7.2140    1.2222    0.0000 C   0  0  0  0  0  0  0  0  0  0  0  0
   -7.4442   -0.2601    0.0000 C   0  0  0  0  0  0  0  0  0  0  0  0
   -6.2757   -1.2006    0.0000 C   0  0  0  0  0  0  0  0  0  0  0  0
   -6.5059   -2.6828    0.0000 O   0  0  0  0  0  0  0  0  0  0  0  0
   -7.9046   -3.2245    0.0000 C   0  0  0  0  0  0  0  0  0  0  0  0
   -4.8769   -0.6588    0.0000 N   0  0  0  0  0  0  0  0  0  0  0  0
   -8.3825    2.1626    0.0000 C   0  0  0  0  0  0  0  0  0  0  0  0
  1  2  1  0
  2  3  2  0
  3  4  1  0
  4  5  2  0
  5  6  1  0
  6  7  2  0
  4  8  1  0
  8  9  1  0
  9 10  1  0
 10 11  2  0
 11 12  1  0
 10 13  1  0
 13 14  2  0
 13 15  1  0
 15 16  1  0
 16 17  2  0
 16 18  1  0
 18 19  1  0
 19 20  2  0
 20 21  1  0
 21 22  2  0
 22 23  1  0
 23 24  1  0
 24 25  1  0
 23 26  2  0
 21 27  1  0
  7  2  1  0
  8 12  2  0
 26 19  1  0
M  END
>  <IC50>  (16) 
>20

>  <cmpdNO>  (16) 
16

$$$$

     RDKit          2D

 28 30  0  0  0  0  0  0  0  0999 V2000
    8.6496   -2.4592    0.0000 Cl  0  0  0  0  0  0  0  0  0  0  0  0
    8.1044   -1.0618    0.0000 C   0  0  0  0  0  0  0  0  0  0  0  0
    6.6217   -0.8352    0.0000 C   0  0  0  0  0  0  0  0  0  0  0  0
    6.0765    0.5622    0.0000 C   0  0  0  0  0  0  0  0  0  0  0  0
    7.0141    1.7331    0.0000 C   0  0  0  0  0  0  0  0  0  0  0  0
    8.4969    1.5065    0.0000 C   0  0  0  0  0  0  0  0  0  0  0  0
    9.0421    0.1091    0.0000 C   0  0  0  0  0  0  0  0  0  0  0  0
    4.5937    0.7888    0.0000 C   0  0  0  0  0  0  0  0  0  0  0  0
    3.5388   -0.2776    0.0000 C   0  0  0  0  0  0  0  0  0  0  0  0
    2.1986    0.3960    0.0000 C   0  0  0  0  0  0  0  0  0  0  0  0
    2.4252    1.8788    0.0000 C   0  0  0  0  0  0  0  0  0  0  0  0
    3.9054    2.1216    0.0000 C   0  0  0  0  0  0  0  0  0  0  0  0
    0.8658   -0.2922    0.0000 C   0  0  0  0  0  0  0  0  0  0  0  0
    0.7955   -1.7906    0.0000 O   0  0  0  0  0  0  0  0  0  0  0  0
   -0.3966    0.5179    0.0000 N   0  0  0  0  0  0  0  0  0  0  0  0
   -1.7294   -0.1704    0.0000 C   0  0  0  0  0  0  0  0  0  0  0  0
   -1.7997   -1.6688    0.0000 S   0  0  0  0  0  0  0  0  0  0  0  0
   -2.9918    0.6397    0.0000 N   0  0  0  0  0  0  0  0  0  0  0  0
   -4.3246   -0.0486    0.0000 C   0  0  0  0  0  0  0  0  0  0  0  0
   -5.5870    0.7615    0.0000 N   0  0  0  0  0  0  0  0  0  0  0  0
   -6.9198    0.0732    0.0000 C   0  0  0  0  0  0  0  0  0  0  0  0
   -8.1823    0.8833    0.0000 O   0  0  0  0  0  0  0  0  0  0  0  0
   -8.1119    2.3817    0.0000 C   0  0  0  0  0  0  0  0  0  0  0  0
   -9.3744    3.1917    0.0000 C   0  0  0  0  0  0  0  0  0  0  0  0
   -6.9901   -1.4251    0.0000 C   0  0  0  0  0  0  0  0  0  0  0  0
   -5.7277   -2.2352    0.0000 C   0  0  0  0  0  0  0  0  0  0  0  0
   -5.7980   -3.7336    0.0000 Cl  0  0  0  0  0  0  0  0  0  0  0  0
   -4.3949   -1.5469    0.0000 N   0  0  0  0  0  0  0  0  0  0  0  0
  1  2  1  0
  2  3  2  0
  3  4  1  0
  4  5  2  0
  5  6  1  0
  6  7  2  0
  4  8  1  0
  8  9  1  0
  9 10  1  0
 10 11  2  0
 11 12  1  0
 10 13  1  0
 13 14  2  0
 13 15  1  0
 15 16  1  0
 16 17  2  0
 16 18  1  0
 18 19  1  0
 19 20  2  0
 20 21  1  0
 21 22  1  0
 22 23  1  0
 23 24  1  0
 21 25  2  0
 25 26  1  0
 26 27  1  0
 26 28  2  0
  7  2  1  0
  8 12  2  0
 28 19  1  0
M  END
>  <IC50>  (17) 
>20

>  <cmpdNO>  (17) 
17

$$$$

     RDKit          2D

 25 27  0  0  0  0  0  0  0  0999 V2000
   -0.7319   -2.7900    0.0000 O   0  0  0  0  0  0  0  0  0  0  0  0
   -2.1180   -2.2167    0.0000 C   0  0  0  0  0  0  0  0  0  0  0  0
   -2.3146   -0.7296    0.0000 C   0  0  0  0  0  0  0  0  0  0  0  0
   -1.1250    0.1842    0.0000 C   0  0  0  0  0  0  0  0  0  0  0  0
   -1.3216    1.6712    0.0000 O   0  0  0  0  0  0  0  0  0  0  0  0
    0.2611   -0.3891    0.0000 C   0  0  0  0  0  0  0  0  0  0  0  0
    0.4576   -1.8762    0.0000 C   0  0  0  0  0  0  0  0  0  0  0  0
    1.8438   -2.4495    0.0000 C   0  0  0  0  0  0  0  0  0  0  0  0
    3.0333   -1.5358    0.0000 C   0  0  0  0  0  0  0  0  0  0  0  0
    4.4194   -2.1091    0.0000 O   0  0  0  0  0  0  0  0  0  0  0  0
    2.8368   -0.0487    0.0000 C   0  0  0  0  0  0  0  0  0  0  0  0
    4.0263    0.8651    0.0000 C   0  0  0  0  0  0  0  0  0  0  0  0
    5.4124    0.2917    0.0000 C   0  0  0  0  0  0  0  0  0  0  0  0
    6.6020    1.2055    0.0000 C   0  0  0  0  0  0  0  0  0  0  0  0
    7.9881    0.6322    0.0000 C   0  0  0  0  0  0  0  0  0  0  0  0
    6.4054    2.6926    0.0000 C   0  0  0  0  0  0  0  0  0  0  0  0
    1.4506    0.5246    0.0000 C   0  0  0  0  0  0  0  0  0  0  0  0
    1.2541    2.0117    0.0000 O   0  0  0  0  0  0  0  0  0  0  0  0
   -3.7007   -0.1563    0.0000 C   0  0  0  0  0  0  0  0  0  0  0  0
   -3.8973    1.3308    0.0000 C   0  0  0  0  0  0  0  0  0  0  0  0
   -5.2834    1.9041    0.0000 C   0  0  0  0  0  0  0  0  0  0  0  0
   -6.4729    0.9903    0.0000 C   0  0  0  0  0  0  0  0  0  0  0  0
   -7.8590    1.5637    0.0000 O   0  0  0  0  0  0  0  0  0  0  0  0
   -6.2764   -0.4967    0.0000 C   0  0  0  0  0  0  0  0  0  0  0  0
   -4.8903   -1.0700    0.0000 C   0  0  0  0  0  0  0  0  0  0  0  0
  1  2  1  0
  2  3  2  0
  3  4  1  0
  4  5  2  0
  4  6  1  0
  6  7  2  0
  7  8  1  0
  8  9  2  0
  9 10  1  0
  9 11  1  0
 11 12  1  0
 12 13  1  0
 13 14  2  0
 14 15  1  0
 14 16  1  0
 11 17  2  0
 17 18  1  0
  3 19  1  0
 19 20  2  0
 20 21  1  0
 21 22  2  0
 22 23  1  0
 22 24  1  0
 24 25  2  0
  7  1  1  0
 25 19  1  0
 17  6  1  0
M  END
>  <IC50>  (18) 
>50

>  <cmpdNO>  (18) 
18

$$$$

     RDKit          2D

 25 27  0  0  0  0  0  0  0  0999 V2000
    3.1676   -2.2649    0.0000 O   0  0  0  0  0  0  0  0  0  0  0  0
    1.6929   -2.5392    0.0000 C   0  0  0  0  0  0  0  0  0  0  0  0
    0.7180   -1.3992    0.0000 C   0  0  0  0  0  0  0  0  0  0  0  0
    1.2178    0.0151    0.0000 C   0  0  0  0  0  0  0  0  0  0  0  0
    0.2429    1.1551    0.0000 O   0  0  0  0  0  0  0  0  0  0  0  0
    2.6925    0.2894    0.0000 C   0  0  0  0  0  0  0  0  0  0  0  0
    3.6674   -0.8506    0.0000 C   0  0  0  0  0  0  0  0  0  0  0  0
    5.1421   -0.5763    0.0000 C   0  0  0  0  0  0  0  0  0  0  0  0
    5.6419    0.8380    0.0000 C   0  0  0  0  0  0  0  0  0  0  0  0
    7.1166    1.1123    0.0000 O   0  0  0  0  0  0  0  0  0  0  0  0
    4.6670    1.9780    0.0000 C   0  0  0  0  0  0  0  0  0  0  0  0
    3.1923    1.7037    0.0000 C   0  0  0  0  0  0  0  0  0  0  0  0
    2.2174    2.8437    0.0000 O   0  0  0  0  0  0  0  0  0  0  0  0
   -0.7567   -1.6735    0.0000 C   0  0  0  0  0  0  0  0  0  0  0  0
   -1.7316   -0.5335    0.0000 C   0  0  0  0  0  0  0  0  0  0  0  0
   -3.2063   -0.8078    0.0000 C   0  0  0  0  0  0  0  0  0  0  0  0
   -4.1813    0.3322    0.0000 C   0  0  0  0  0  0  0  0  0  0  0  0
   -3.6815    1.7464    0.0000 C   0  0  0  0  0  0  0  0  0  0  0  0
   -4.6564    2.8864    0.0000 C   0  0  0  0  0  0  0  0  0  0  0  0
   -4.1566    4.3007    0.0000 C   0  0  0  0  0  0  0  0  0  0  0  0
   -6.1311    2.6121    0.0000 C   0  0  0  0  0  0  0  0  0  0  0  0
   -3.7061   -2.2221    0.0000 C   0  0  0  0  0  0  0  0  0  0  0  0
   -5.1808   -2.4964    0.0000 O   0  0  0  0  0  0  0  0  0  0  0  0
   -2.7312   -3.3621    0.0000 C   0  0  0  0  0  0  0  0  0  0  0  0
   -1.2565   -3.0878    0.0000 C   0  0  0  0  0  0  0  0  0  0  0  0
  1  2  1  0
  2  3  2  0
  3  4  1  0
  4  5  2  0
  4  6  1  0
  6  7  2  0
  7  8  1  0
  8  9  2  0
  9 10  1  0
  9 11  1  0
 11 12  2  0
 12 13  1  0
  3 14  1  0
 14 15  2  0
 15 16  1  0
 16 17  1  0
 17 18  1  0
 18 19  2  0
 19 20  1  0
 19 21  1  0
 16 22  2  0
 22 23  1  0
 22 24  1  0
 24 25  2  0
  7  1  1  0
 25 14  1  0
 12  6  1  0
M  END
>  <IC50>  (19) 
>50

>  <cmpdNO>  (19) 
19

$$$$

     RDKit          2D

 31 34  0  0  0  0  0  0  0  0999 V2000
    4.3340    0.5134    0.0000 O   0  0  0  0  0  0  0  0  0  0  0  0
    2.8422    0.6703    0.0000 C   0  0  0  0  0  0  0  0  0  0  0  0
    2.2321    2.0406    0.0000 C   0  0  0  0  0  0  0  0  0  0  0  0
    3.1139    3.2541    0.0000 C   0  0  0  0  0  0  0  0  0  0  0  0
    4.6057    3.0972    0.0000 C   0  0  0  0  0  0  0  0  0  0  0  0
    5.2157    1.7269    0.0000 C   0  0  0  0  0  0  0  0  0  0  0  0
    6.4593    2.5656    0.0000 C   0  0  0  0  0  0  0  0  0  0  0  0
    6.2576    0.6478    0.0000 C   0  0  0  0  0  0  0  0  0  0  0  0
    0.7404    2.1975    0.0000 C   0  0  0  0  0  0  0  0  0  0  0  0
    0.1303    3.5678    0.0000 O   0  0  0  0  0  0  0  0  0  0  0  0
   -0.1414    0.9840    0.0000 C   0  0  0  0  0  0  0  0  0  0  0  0
    0.4687   -0.3864    0.0000 C   0  0  0  0  0  0  0  0  0  0  0  0
   -0.4131   -1.5999    0.0000 O   0  0  0  0  0  0  0  0  0  0  0  0
   -1.9048   -1.4430    0.0000 C   0  0  0  0  0  0  0  0  0  0  0  0
   -2.5149   -0.0726    0.0000 C   0  0  0  0  0  0  0  0  0  0  0  0
   -1.6331    1.1408    0.0000 C   0  0  0  0  0  0  0  0  0  0  0  0
   -2.2432    2.5112    0.0000 O   0  0  0  0  0  0  0  0  0  0  0  0
   -4.0066    0.0842    0.0000 C   0  0  0  0  0  0  0  0  0  0  0  0
   -4.6167    1.4546    0.0000 C   0  0  0  0  0  0  0  0  0  0  0  0
   -6.1085    1.6114    0.0000 C   0  0  0  0  0  0  0  0  0  0  0  0
   -6.9902    0.3979    0.0000 C   0  0  0  0  0  0  0  0  0  0  0  0
   -8.4820    0.5548    0.0000 O   0  0  0  0  0  0  0  0  0  0  0  0
   -6.3802   -0.9724    0.0000 C   0  0  0  0  0  0  0  0  0  0  0  0
   -4.8884   -1.1293    0.0000 C   0  0  0  0  0  0  0  0  0  0  0  0
    1.9605   -0.5432    0.0000 C   0  0  0  0  0  0  0  0  0  0  0  0
    2.5705   -1.9136    0.0000 C   0  0  0  0  0  0  0  0  0  0  0  0
    1.6888   -3.1271    0.0000 C   0  0  0  0  0  0  0  0  0  0  0  0
    0.1970   -2.9702    0.0000 O   0  0  0  0  0  0  0  0  0  0  0  0
    2.2988   -4.4974    0.0000 C   0  0  0  0  0  0  0  0  0  0  0  0
    1.4171   -5.7109    0.0000 C   0  0  0  0  0  0  0  0  0  0  0  0
    3.7906   -4.6543    0.0000 C   0  0  0  0  0  0  0  0  0  0  0  0
  1  2  1  0
  2  3  2  0
  3  4  1  0
  4  5  2  0
  5  6  1  0
  6  7  1  0
  6  8  1  0
  3  9  1  0
  9 10  1  0
  9 11  2  0
 11 12  1  0
 12 13  1  0
 13 14  1  0
 14 15  2  0
 15 16  1  0
 16 17  2  0
 15 18  1  0
 18 19  2  0
 19 20  1  0
 20 21  2  0
 21 22  1  0
 21 23  1  0
 23 24  2  0
 12 25  2  0
 25 26  1  0
 26 27  1  0
 27 28  1  0
 27 29  1  0
 29 30  1  0
 29 31  2  0
  6  1  1  0
 16 11  1  0
 24 18  1  0
 25  2  1  0
M  END
>  <IC50>  (20) 
>50

>  <cmpdNO>  (20) 
21

$$$$

     RDKit          2D

 29 30  0  0  0  0  0  0  0  0999 V2000
   -4.5554   -1.3748    0.0000 O   0  0  0  0  0  0  0  0  0  0  0  0
   -3.2403   -0.6534    0.0000 C   0  0  0  0  0  0  0  0  0  0  0  0
   -3.2074    0.8463    0.0000 C   0  0  0  0  0  0  0  0  0  0  0  0
   -1.8923    1.5677    0.0000 C   0  0  0  0  0  0  0  0  0  0  0  0
   -0.6100    0.7894    0.0000 C   0  0  0  0  0  0  0  0  0  0  0  0
   -0.6428   -0.7102    0.0000 C   0  0  0  0  0  0  0  0  0  0  0  0
   -1.9580   -1.4316    0.0000 C   0  0  0  0  0  0  0  0  0  0  0  0
   -1.9908   -2.9313    0.0000 C   0  0  0  0  0  0  0  0  0  0  0  0
   -3.3059   -3.6527    0.0000 C   0  0  0  0  0  0  0  0  0  0  0  0
   -3.3388   -5.1523    0.0000 C   0  0  0  0  0  0  0  0  0  0  0  0
   -4.6539   -5.8737    0.0000 C   0  0  0  0  0  0  0  0  0  0  0  0
   -2.0565   -5.9305    0.0000 C   0  0  0  0  0  0  0  0  0  0  0  0
    0.7052    1.5108    0.0000 C   0  0  0  0  0  0  0  0  0  0  0  0
    1.9875    0.7325    0.0000 C   0  0  0  0  0  0  0  0  0  0  0  0
    3.3026    1.4539    0.0000 C   0  0  0  0  0  0  0  0  0  0  0  0
    3.3354    2.9536    0.0000 O   0  0  0  0  0  0  0  0  0  0  0  0
    4.5849    0.6757    0.0000 C   0  0  0  0  0  0  0  0  0  0  0  0
    4.5521   -0.8240    0.0000 C   0  0  0  0  0  0  0  0  0  0  0  0
    5.8344   -1.6022    0.0000 C   0  0  0  0  0  0  0  0  0  0  0  0
    7.1495   -0.8808    0.0000 C   0  0  0  0  0  0  0  0  0  0  0  0
    8.4318   -1.6591    0.0000 O   0  0  0  0  0  0  0  0  0  0  0  0
    7.1824    0.6188    0.0000 C   0  0  0  0  0  0  0  0  0  0  0  0
    5.9001    1.3971    0.0000 C   0  0  0  0  0  0  0  0  0  0  0  0
    5.9329    2.8967    0.0000 O   0  0  0  0  0  0  0  0  0  0  0  0
   -4.4898    1.6245    0.0000 C   0  0  0  0  0  0  0  0  0  0  0  0
   -4.4569    3.1242    0.0000 C   0  0  0  0  0  0  0  0  0  0  0  0
   -5.7392    3.9024    0.0000 C   0  0  0  0  0  0  0  0  0  0  0  0
   -5.7064    5.4021    0.0000 C   0  0  0  0  0  0  0  0  0  0  0  0
   -7.0544    3.1810    0.0000 C   0  0  0  0  0  0  0  0  0  0  0  0
  1  2  1  0
  2  3  2  0
  3  4  1  0
  4  5  2  0
  5  6  1  0
  6  7  2  0
  7  8  1  0
  8  9  1  0
  9 10  2  0
 10 11  1  0
 10 12  1  0
  5 13  1  0
 13 14  2  0
 14 15  1  0
 15 16  2  0
 15 17  1  0
 17 18  2  0
 18 19  1  0
 19 20  2  0
 20 21  1  0
 20 22  1  0
 22 23  2  0
 23 24  1  0
  3 25  1  0
 25 26  1  0
 26 27  2  0
 27 28  1  0
 27 29  1  0
  7  2  1  0
 23 17  1  0
M  END
>  <IC50>  (21) 
67.36

>  <cmpdNO>  (21) 
22

$$$$

     RDKit          2D

 22 23  0  0  0  0  0  0  0  0999 V2000
    4.1648   -1.1365    0.0000 O   0  0  0  0  0  0  0  0  0  0  0  0
    5.6343   -0.8357    0.0000 C   0  0  0  0  0  0  0  0  0  0  0  0
    3.1695   -0.0142    0.0000 C   0  0  0  0  0  0  0  0  0  0  0  0
    3.6438    1.4088    0.0000 C   0  0  0  0  0  0  0  0  0  0  0  0
    2.6485    2.5311    0.0000 C   0  0  0  0  0  0  0  0  0  0  0  0
    3.1228    3.9541    0.0000 O   0  0  0  0  0  0  0  0  0  0  0  0
    1.1790    2.2303    0.0000 C   0  0  0  0  0  0  0  0  0  0  0  0
    0.7047    0.8072    0.0000 C   0  0  0  0  0  0  0  0  0  0  0  0
    1.7000   -0.3150    0.0000 C   0  0  0  0  0  0  0  0  0  0  0  0
    1.2257   -1.7381    0.0000 C   0  0  0  0  0  0  0  0  0  0  0  0
   -0.2438   -2.0389    0.0000 C   0  0  0  0  0  0  0  0  0  0  0  0
   -0.7181   -3.4619    0.0000 C   0  0  0  0  0  0  0  0  0  0  0  0
    0.2772   -4.5842    0.0000 O   0  0  0  0  0  0  0  0  0  0  0  0
   -1.2391   -0.9166    0.0000 C   0  0  0  0  0  0  0  0  0  0  0  0
   -0.7648    0.5064    0.0000 C   0  0  0  0  0  0  0  0  0  0  0  0
   -1.7601    1.6287    0.0000 C   0  0  0  0  0  0  0  0  0  0  0  0
   -3.2296    1.3279    0.0000 C   0  0  0  0  0  0  0  0  0  0  0  0
   -4.2249    2.4501    0.0000 O   0  0  0  0  0  0  0  0  0  0  0  0
   -5.6944    2.1493    0.0000 C   0  0  0  0  0  0  0  0  0  0  0  0
   -3.7039   -0.0952    0.0000 C   0  0  0  0  0  0  0  0  0  0  0  0
   -2.7086   -1.2174    0.0000 C   0  0  0  0  0  0  0  0  0  0  0  0
   -3.1829   -2.6405    0.0000 O   0  0  0  0  0  0  0  0  0  0  0  0
  1  2  1  0
  1  3  1  0
  3  4  2  0
  4  5  1  0
  5  6  1  0
  5  7  2  0
  7  8  1  0
  8  9  2  0
  9 10  1  0
 10 11  2  0
 11 12  1  0
 12 13  2  0
 11 14  1  0
 14 15  2  0
 15 16  1  0
 16 17  2  0
 17 18  1  0
 18 19  1  0
 17 20  1  0
 20 21  2  0
 21 22  1  0
  9  3  1  0
 21 14  1  0
M  END
>  <IC50>  (22) 
29.3

>  <cmpdNO>  (22) 
23

$$$$

     RDKit          2D

 27 30  0  0  0  0  0  0  0  0999 V2000
    4.5773   -0.6382    0.0000 O   0  0  0  0  0  0  0  0  0  0  0  0
    3.1108   -0.3233    0.0000 C   0  0  0  0  0  0  0  0  0  0  0  0
    2.6501    1.1042    0.0000 C   0  0  0  0  0  0  0  0  0  0  0  0
    3.6561    2.2169    0.0000 C   0  0  0  0  0  0  0  0  0  0  0  0
    5.1226    1.9021    0.0000 C   0  0  0  0  0  0  0  0  0  0  0  0
    5.5833    0.4745    0.0000 C   0  0  0  0  0  0  0  0  0  0  0  0
    6.9091    1.1761    0.0000 C   0  0  0  0  0  0  0  0  0  0  0  0
    6.5044   -0.7093    0.0000 C   0  0  0  0  0  0  0  0  0  0  0  0
    1.1835    1.4190    0.0000 C   0  0  0  0  0  0  0  0  0  0  0  0
    0.7229    2.8465    0.0000 O   0  0  0  0  0  0  0  0  0  0  0  0
    0.1776    0.3063    0.0000 C   0  0  0  0  0  0  0  0  0  0  0  0
    0.6382   -1.1212    0.0000 C   0  0  0  0  0  0  0  0  0  0  0  0
   -0.3677   -2.2339    0.0000 O   0  0  0  0  0  0  0  0  0  0  0  0
   -1.8343   -1.9190    0.0000 C   0  0  0  0  0  0  0  0  0  0  0  0
   -2.2950   -0.4915    0.0000 C   0  0  0  0  0  0  0  0  0  0  0  0
   -1.2890    0.6212    0.0000 C   0  0  0  0  0  0  0  0  0  0  0  0
   -1.7496    2.0487    0.0000 O   0  0  0  0  0  0  0  0  0  0  0  0
   -3.7615   -0.1767    0.0000 C   0  0  0  0  0  0  0  0  0  0  0  0
   -4.2222    1.2508    0.0000 C   0  0  0  0  0  0  0  0  0  0  0  0
   -5.6888    1.5657    0.0000 C   0  0  0  0  0  0  0  0  0  0  0  0
   -6.6947    0.4530    0.0000 C   0  0  0  0  0  0  0  0  0  0  0  0
   -8.1613    0.7678    0.0000 O   0  0  0  0  0  0  0  0  0  0  0  0
   -6.2341   -0.9745    0.0000 C   0  0  0  0  0  0  0  0  0  0  0  0
   -4.7675   -1.2894    0.0000 C   0  0  0  0  0  0  0  0  0  0  0  0
    2.1048   -1.4360    0.0000 C   0  0  0  0  0  0  0  0  0  0  0  0
    2.5655   -2.8635    0.0000 C   0  0  0  0  0  0  0  0  0  0  0  0
    1.5595   -3.9762    0.0000 O   0  0  0  0  0  0  0  0  0  0  0  0
  1  2  1  0
  2  3  2  0
  3  4  1  0
  4  5  2  0
  5  6  1  0
  6  7  1  0
  6  8  1  0
  3  9  1  0
  9 10  1  0
  9 11  2  0
 11 12  1  0
 12 13  1  0
 13 14  1  0
 14 15  2  0
 15 16  1  0
 16 17  2  0
 15 18  1  0
 18 19  2  0
 19 20  1  0
 20 21  2  0
 21 22  1  0
 21 23  1  0
 23 24  2  0
 12 25  2  0
 25 26  1  0
 26 27  1  0
  6  1  1  0
 16 11  1  0
 24 18  1  0
 25  2  1  0
M  END
>  <IC50>  (23) 
>50

>  <cmpdNO>  (23) 
25

$$$$

     RDKit          2D

 28 31  0  0  0  0  0  0  0  0999 V2000
    0.9366    0.1416    0.0000 O   0  0  0  0  0  0  0  0  0  0  0  0
   -0.1652    1.1595    0.0000 C   0  0  0  0  0  0  0  0  0  0  0  0
    0.1654    2.6226    0.0000 C   0  0  0  0  0  0  0  0  0  0  0  0
    1.5978    3.0678    0.0000 C   0  0  0  0  0  0  0  0  0  0  0  0
    1.9284    4.5310    0.0000 O   0  0  0  0  0  0  0  0  0  0  0  0
    2.6996    2.0500    0.0000 C   0  0  0  0  0  0  0  0  0  0  0  0
    2.3690    0.5869    0.0000 C   0  0  0  0  0  0  0  0  0  0  0  0
    3.4708   -0.4310    0.0000 C   0  0  0  0  0  0  0  0  0  0  0  0
    3.1402   -1.8941    0.0000 C   0  0  0  0  0  0  0  0  0  0  0  0
    4.2420   -2.9120    0.0000 C   0  0  0  0  0  0  0  0  0  0  0  0
    5.6744   -2.4668    0.0000 C   0  0  0  0  0  0  0  0  0  0  0  0
    6.7761   -3.4846    0.0000 O   0  0  0  0  0  0  0  0  0  0  0  0
    6.0050   -1.0037    0.0000 C   0  0  0  0  0  0  0  0  0  0  0  0
    4.9032    0.0142    0.0000 C   0  0  0  0  0  0  0  0  0  0  0  0
   -0.9364    3.6405    0.0000 C   0  0  0  0  0  0  0  0  0  0  0  0
   -0.6057    5.1036    0.0000 O   0  0  0  0  0  0  0  0  0  0  0  0
   -2.3688    3.1952    0.0000 C   0  0  0  0  0  0  0  0  0  0  0  0
   -2.6994    1.7321    0.0000 C   0  0  0  0  0  0  0  0  0  0  0  0
   -4.1318    1.2869    0.0000 O   0  0  0  0  0  0  0  0  0  0  0  0
   -1.5976    0.7143    0.0000 C   0  0  0  0  0  0  0  0  0  0  0  0
   -1.9282   -0.7488    0.0000 C   0  0  0  0  0  0  0  0  0  0  0  0
   -3.3606   -1.1941    0.0000 N   0  0  0  0  0  0  0  0  0  0  0  0
   -4.5627   -0.2970    0.0000 C   0  0  0  0  0  0  0  0  0  0  0  0
   -5.7874   -1.1630    0.0000 C   0  0  0  0  0  0  0  0  0  0  0  0
   -5.3422   -2.5954    0.0000 C   0  0  0  0  0  0  0  0  0  0  0  0
   -3.8423   -2.6146    0.0000 C   0  0  0  0  0  0  0  0  0  0  0  0
   -2.9763   -3.8393    0.0000 C   0  0  0  0  0  0  0  0  0  0  0  0
   -3.6038   -5.2017    0.0000 O   0  0  0  0  0  0  0  0  0  0  0  0
  1  2  1  0
  2  3  2  0
  3  4  1  0
  4  5  2  0
  4  6  1  0
  6  7  2  0
  7  8  1  0
  8  9  2  0
  9 10  1  0
 10 11  2  0
 11 12  1  0
 11 13  1  0
 13 14  2  0
  3 15  1  0
 15 16  1  0
 15 17  2  0
 17 18  1  0
 18 19  1  0
 18 20  2  0
 20 21  1  0
 21 22  1  0
 22 23  1  0
 23 24  1  0
 24 25  1  0
 25 26  1  0
 26 27  1  0
 27 28  1  0
  7  1  1  0
 14  8  1  0
 26 22  1  0
 20  2  1  0
M  END
>  <IC50>  (24) 
49.71

>  <cmpdNO>  (24) 
26

$$$$

     RDKit          2D

 28 31  0  0  0  0  0  0  0  0999 V2000
    1.1843   -0.0267    0.0000 O   0  0  0  0  0  0  0  0  0  0  0  0
    0.0879    0.9969    0.0000 C   0  0  0  0  0  0  0  0  0  0  0  0
    0.4261    2.4583    0.0000 C   0  0  0  0  0  0  0  0  0  0  0  0
    1.8608    2.8960    0.0000 C   0  0  0  0  0  0  0  0  0  0  0  0
    2.1991    4.3574    0.0000 O   0  0  0  0  0  0  0  0  0  0  0  0
    2.9573    1.8724    0.0000 C   0  0  0  0  0  0  0  0  0  0  0  0
    2.6190    0.4111    0.0000 C   0  0  0  0  0  0  0  0  0  0  0  0
    3.7155   -0.6125    0.0000 C   0  0  0  0  0  0  0  0  0  0  0  0
    3.3773   -2.0739    0.0000 C   0  0  0  0  0  0  0  0  0  0  0  0
    4.4737   -3.0975    0.0000 C   0  0  0  0  0  0  0  0  0  0  0  0
    5.9084   -2.6598    0.0000 C   0  0  0  0  0  0  0  0  0  0  0  0
    7.0049   -3.6834    0.0000 O   0  0  0  0  0  0  0  0  0  0  0  0
    6.2467   -1.1984    0.0000 C   0  0  0  0  0  0  0  0  0  0  0  0
    5.1502   -0.1748    0.0000 C   0  0  0  0  0  0  0  0  0  0  0  0
   -0.6703    3.4819    0.0000 C   0  0  0  0  0  0  0  0  0  0  0  0
   -0.3321    4.9433    0.0000 O   0  0  0  0  0  0  0  0  0  0  0  0
   -2.1050    3.0442    0.0000 C   0  0  0  0  0  0  0  0  0  0  0  0
   -2.4433    1.5828    0.0000 C   0  0  0  0  0  0  0  0  0  0  0  0
   -3.8780    1.1450    0.0000 O   0  0  0  0  0  0  0  0  0  0  0  0
   -1.3468    0.5592    0.0000 C   0  0  0  0  0  0  0  0  0  0  0  0
   -1.6851   -0.9022    0.0000 C   0  0  0  0  0  0  0  0  0  0  0  0
   -3.1198   -1.3399    0.0000 N   0  0  0  0  0  0  0  0  0  0  0  0
   -4.2162   -0.3163    0.0000 C   0  0  0  0  0  0  0  0  0  0  0  0
   -5.6509   -0.7541    0.0000 C   0  0  0  0  0  0  0  0  0  0  0  0
   -5.9892   -2.2154    0.0000 N   0  0  0  0  0  0  0  0  0  0  0  0
   -4.8927   -3.2391    0.0000 C   0  0  0  0  0  0  0  0  0  0  0  0
   -3.4580   -2.8013    0.0000 C   0  0  0  0  0  0  0  0  0  0  0  0
   -7.4239   -2.6532    0.0000 C   0  0  0  0  0  0  0  0  0  0  0  0
  1  2  1  0
  2  3  2  0
  3  4  1  0
  4  5  2  0
  4  6  1  0
  6  7  2  0
  7  8  1  0
  8  9  2  0
  9 10  1  0
 10 11  2  0
 11 12  1  0
 11 13  1  0
 13 14  2  0
  3 15  1  0
 15 16  1  0
 15 17  2  0
 17 18  1  0
 18 19  1  0
 18 20  2  0
 20 21  1  0
 21 22  1  0
 22 23  1  0
 23 24  1  0
 24 25  1  0
 25 26  1  0
 26 27  1  0
 25 28  1  0
  7  1  1  0
 14  8  1  0
 27 22  1  0
 20  2  1  0
M  END
>  <IC50>  (25) 
148.4

>  <cmpdNO>  (25) 
27

$$$$

     RDKit          2D

 28 31  0  0  0  0  0  0  0  0999 V2000
    1.1843   -0.0267    0.0000 O   0  0  0  0  0  0  0  0  0  0  0  0
    0.0879    0.9969    0.0000 C   0  0  0  0  0  0  0  0  0  0  0  0
    0.4261    2.4583    0.0000 C   0  0  0  0  0  0  0  0  0  0  0  0
    1.8608    2.8960    0.0000 C   0  0  0  0  0  0  0  0  0  0  0  0
    2.1991    4.3574    0.0000 O   0  0  0  0  0  0  0  0  0  0  0  0
    2.9573    1.8724    0.0000 C   0  0  0  0  0  0  0  0  0  0  0  0
    2.6190    0.4111    0.0000 C   0  0  0  0  0  0  0  0  0  0  0  0
    3.7155   -0.6125    0.0000 C   0  0  0  0  0  0  0  0  0  0  0  0
    3.3773   -2.0739    0.0000 C   0  0  0  0  0  0  0  0  0  0  0  0
    4.4737   -3.0975    0.0000 C   0  0  0  0  0  0  0  0  0  0  0  0
    5.9084   -2.6598    0.0000 C   0  0  0  0  0  0  0  0  0  0  0  0
    7.0049   -3.6834    0.0000 O   0  0  0  0  0  0  0  0  0  0  0  0
    6.2467   -1.1984    0.0000 C   0  0  0  0  0  0  0  0  0  0  0  0
    5.1502   -0.1748    0.0000 C   0  0  0  0  0  0  0  0  0  0  0  0
   -0.6703    3.4819    0.0000 C   0  0  0  0  0  0  0  0  0  0  0  0
   -0.3321    4.9433    0.0000 O   0  0  0  0  0  0  0  0  0  0  0  0
   -2.1050    3.0442    0.0000 C   0  0  0  0  0  0  0  0  0  0  0  0
   -2.4433    1.5828    0.0000 C   0  0  0  0  0  0  0  0  0  0  0  0
   -3.8780    1.1450    0.0000 O   0  0  0  0  0  0  0  0  0  0  0  0
   -1.3468    0.5592    0.0000 C   0  0  0  0  0  0  0  0  0  0  0  0
   -1.6851   -0.9022    0.0000 C   0  0  0  0  0  0  0  0  0  0  0  0
   -3.1198   -1.3399    0.0000 N   0  0  0  0  0  0  0  0  0  0  0  0
   -4.2162   -0.3163    0.0000 C   0  0  0  0  0  0  0  0  0  0  0  0
   -5.6509   -0.7541    0.0000 C   0  0  0  0  0  0  0  0  0  0  0  0
   -5.9892   -2.2154    0.0000 C   0  0  0  0  0  0  0  0  0  0  0  0
   -4.8927   -3.2391    0.0000 C   0  0  0  0  0  0  0  0  0  0  0  0
   -3.4580   -2.8013    0.0000 C   0  0  0  0  0  0  0  0  0  0  0  0
   -7.4239   -2.6532    0.0000 C   0  0  0  0  0  0  0  0  0  0  0  0
  1  2  1  0
  2  3  2  0
  3  4  1  0
  4  5  2  0
  4  6  1  0
  6  7  2  0
  7  8  1  0
  8  9  2  0
  9 10  1  0
 10 11  2  0
 11 12  1  0
 11 13  1  0
 13 14  2  0
  3 15  1  0
 15 16  1  0
 15 17  2  0
 17 18  1  0
 18 19  1  0
 18 20  2  0
 20 21  1  0
 21 22  1  0
 22 23  1  0
 23 24  1  0
 24 25  1  0
 25 26  1  0
 26 27  1  0
 25 28  1  0
  7  1  1  0
 14  8  1  0
 27 22  1  0
 20  2  1  0
M  END
>  <IC50>  (26) 
164.49

>  <cmpdNO>  (26) 
28

$$$$

     RDKit          2D

 26 29  0  0  0  0  0  0  0  0999 V2000
    0.7073   -0.0968    0.0000 O   0  0  0  0  0  0  0  0  0  0  0  0
   -0.5399    0.7365    0.0000 C   0  0  0  0  0  0  0  0  0  0  0  0
   -0.4418    2.2333    0.0000 C   0  0  0  0  0  0  0  0  0  0  0  0
    0.9035    2.8967    0.0000 C   0  0  0  0  0  0  0  0  0  0  0  0
    1.0016    4.3935    0.0000 O   0  0  0  0  0  0  0  0  0  0  0  0
    2.1507    2.0634    0.0000 C   0  0  0  0  0  0  0  0  0  0  0  0
    2.0526    0.5666    0.0000 C   0  0  0  0  0  0  0  0  0  0  0  0
    3.2998   -0.2667    0.0000 C   0  0  0  0  0  0  0  0  0  0  0  0
    3.2017   -1.7635    0.0000 C   0  0  0  0  0  0  0  0  0  0  0  0
    4.4490   -2.5969    0.0000 C   0  0  0  0  0  0  0  0  0  0  0  0
    5.7943   -1.9334    0.0000 C   0  0  0  0  0  0  0  0  0  0  0  0
    7.0415   -2.7668    0.0000 O   0  0  0  0  0  0  0  0  0  0  0  0
    5.8923   -0.4366    0.0000 C   0  0  0  0  0  0  0  0  0  0  0  0
    4.6451    0.3967    0.0000 C   0  0  0  0  0  0  0  0  0  0  0  0
   -1.6890    3.0666    0.0000 C   0  0  0  0  0  0  0  0  0  0  0  0
   -1.5909    4.5634    0.0000 O   0  0  0  0  0  0  0  0  0  0  0  0
   -3.0343    2.4032    0.0000 C   0  0  0  0  0  0  0  0  0  0  0  0
   -3.1324    0.9064    0.0000 C   0  0  0  0  0  0  0  0  0  0  0  0
   -4.4777    0.2429    0.0000 O   0  0  0  0  0  0  0  0  0  0  0  0
   -1.8852    0.0730    0.0000 C   0  0  0  0  0  0  0  0  0  0  0  0
   -1.9833   -1.4237    0.0000 C   0  0  0  0  0  0  0  0  0  0  0  0
   -3.3286   -2.0872    0.0000 N   0  0  0  0  0  0  0  0  0  0  0  0
   -3.5826   -3.5655    0.0000 C   0  0  0  0  0  0  0  0  0  0  0  0
   -5.0671   -3.7808    0.0000 C   0  0  0  0  0  0  0  0  0  0  0  0
   -5.7305   -2.4355    0.0000 C   0  0  0  0  0  0  0  0  0  0  0  0
   -4.6561   -1.3888    0.0000 C   0  0  0  0  0  0  0  0  0  0  0  0
  1  2  1  0
  2  3  2  0
  3  4  1  0
  4  5  2  0
  4  6  1  0
  6  7  2  0
  7  8  1  0
  8  9  2  0
  9 10  1  0
 10 11  2  0
 11 12  1  0
 11 13  1  0
 13 14  2  0
  3 15  1  0
 15 16  1  0
 15 17  2  0
 17 18  1  0
 18 19  1  0
 18 20  2  0
 20 21  1  0
 21 22  1  0
 22 23  1  0
 23 24  1  0
 24 25  1  0
 25 26  1  0
  7  1  1  0
 14  8  1  0
 26 22  1  0
 20  2  1  0
M  END
>  <IC50>  (27) 
44.47

>  <cmpdNO>  (27) 
29

$$$$

     RDKit          2D

 28 31  0  0  0  0  0  0  0  0999 V2000
    1.1668   -0.0410    0.0000 O   0  0  0  0  0  0  0  0  0  0  0  0
   -0.0054    0.8948    0.0000 C   0  0  0  0  0  0  0  0  0  0  0  0
    0.2189    2.3779    0.0000 C   0  0  0  0  0  0  0  0  0  0  0  0
    1.6155    2.9252    0.0000 C   0  0  0  0  0  0  0  0  0  0  0  0
    1.8399    4.4083    0.0000 O   0  0  0  0  0  0  0  0  0  0  0  0
    2.7878    1.9894    0.0000 C   0  0  0  0  0  0  0  0  0  0  0  0
    2.5634    0.5062    0.0000 C   0  0  0  0  0  0  0  0  0  0  0  0
    3.7357   -0.4296    0.0000 C   0  0  0  0  0  0  0  0  0  0  0  0
    3.5114   -1.9127    0.0000 C   0  0  0  0  0  0  0  0  0  0  0  0
    4.6836   -2.8486    0.0000 C   0  0  0  0  0  0  0  0  0  0  0  0
    6.0802   -2.3013    0.0000 C   0  0  0  0  0  0  0  0  0  0  0  0
    7.2525   -3.2371    0.0000 O   0  0  0  0  0  0  0  0  0  0  0  0
    6.3046   -0.8182    0.0000 C   0  0  0  0  0  0  0  0  0  0  0  0
    5.1323    0.1177    0.0000 C   0  0  0  0  0  0  0  0  0  0  0  0
   -0.9533    3.3138    0.0000 C   0  0  0  0  0  0  0  0  0  0  0  0
   -0.7290    4.7969    0.0000 O   0  0  0  0  0  0  0  0  0  0  0  0
   -2.3499    2.7665    0.0000 C   0  0  0  0  0  0  0  0  0  0  0  0
   -2.5743    1.2834    0.0000 C   0  0  0  0  0  0  0  0  0  0  0  0
   -3.9709    0.7361    0.0000 O   0  0  0  0  0  0  0  0  0  0  0  0
   -1.4020    0.3475    0.0000 C   0  0  0  0  0  0  0  0  0  0  0  0
   -1.6264   -1.1356    0.0000 C   0  0  0  0  0  0  0  0  0  0  0  0
   -3.0229   -1.6829    0.0000 N   0  0  0  0  0  0  0  0  0  0  0  0
   -4.1952   -0.7470    0.0000 C   0  0  0  0  0  0  0  0  0  0  0  0
   -5.5918   -1.2943    0.0000 C   0  0  0  0  0  0  0  0  0  0  0  0
   -5.8161   -2.7775    0.0000 C   0  0  0  0  0  0  0  0  0  0  0  0
   -4.6439   -3.7133    0.0000 C   0  0  0  0  0  0  0  0  0  0  0  0
   -3.2473   -3.1660    0.0000 C   0  0  0  0  0  0  0  0  0  0  0  0
   -6.7641   -0.3585    0.0000 C   0  0  0  0  0  0  0  0  0  0  0  0
  1  2  1  0
  2  3  2  0
  3  4  1  0
  4  5  2  0
  4  6  1  0
  6  7  2  0
  7  8  1  0
  8  9  2  0
  9 10  1  0
 10 11  2  0
 11 12  1  0
 11 13  1  0
 13 14  2  0
  3 15  1  0
 15 16  1  0
 15 17  2  0
 17 18  1  0
 18 19  1  0
 18 20  2  0
 20 21  1  0
 21 22  1  0
 22 23  1  0
 23 24  1  0
 24 25  1  0
 25 26  1  0
 26 27  1  0
 24 28  1  0
  7  1  1  0
 14  8  1  0
 27 22  1  0
 20  2  1  0
M  END
>  <IC50>  (28) 
40.91

>  <cmpdNO>  (28) 
30

$$$$

     RDKit          2D

 28 31  0  0  0  0  0  0  0  0999 V2000
    1.1668   -0.0410    0.0000 O   0  0  0  0  0  0  0  0  0  0  0  0
   -0.0054    0.8948    0.0000 C   0  0  0  0  0  0  0  0  0  0  0  0
    0.2189    2.3779    0.0000 C   0  0  0  0  0  0  0  0  0  0  0  0
    1.6155    2.9252    0.0000 C   0  0  0  0  0  0  0  0  0  0  0  0
    1.8399    4.4083    0.0000 O   0  0  0  0  0  0  0  0  0  0  0  0
    2.7878    1.9894    0.0000 C   0  0  0  0  0  0  0  0  0  0  0  0
    2.5634    0.5062    0.0000 C   0  0  0  0  0  0  0  0  0  0  0  0
    3.7357   -0.4296    0.0000 C   0  0  0  0  0  0  0  0  0  0  0  0
    3.5114   -1.9127    0.0000 C   0  0  0  0  0  0  0  0  0  0  0  0
    4.6836   -2.8486    0.0000 C   0  0  0  0  0  0  0  0  0  0  0  0
    6.0802   -2.3013    0.0000 C   0  0  0  0  0  0  0  0  0  0  0  0
    7.2525   -3.2371    0.0000 O   0  0  0  0  0  0  0  0  0  0  0  0
    6.3046   -0.8182    0.0000 C   0  0  0  0  0  0  0  0  0  0  0  0
    5.1323    0.1177    0.0000 C   0  0  0  0  0  0  0  0  0  0  0  0
   -0.9533    3.3138    0.0000 C   0  0  0  0  0  0  0  0  0  0  0  0
   -0.7290    4.7969    0.0000 O   0  0  0  0  0  0  0  0  0  0  0  0
   -2.3499    2.7665    0.0000 C   0  0  0  0  0  0  0  0  0  0  0  0
   -2.5743    1.2834    0.0000 C   0  0  0  0  0  0  0  0  0  0  0  0
   -3.9709    0.7361    0.0000 O   0  0  0  0  0  0  0  0  0  0  0  0
   -1.4020    0.3475    0.0000 C   0  0  0  0  0  0  0  0  0  0  0  0
   -1.6264   -1.1356    0.0000 C   0  0  0  0  0  0  0  0  0  0  0  0
   -3.0229   -1.6829    0.0000 N   0  0  0  0  0  0  0  0  0  0  0  0
   -4.1952   -0.7470    0.0000 C   0  0  0  0  0  0  0  0  0  0  0  0
   -5.5918   -1.2943    0.0000 C   0  0  0  0  0  0  0  0  0  0  0  0
   -6.7641   -0.3585    0.0000 O   0  0  0  0  0  0  0  0  0  0  0  0
   -5.8161   -2.7775    0.0000 C   0  0  0  0  0  0  0  0  0  0  0  0
   -4.6439   -3.7133    0.0000 C   0  0  0  0  0  0  0  0  0  0  0  0
   -3.2473   -3.1660    0.0000 C   0  0  0  0  0  0  0  0  0  0  0  0
  1  2  1  0
  2  3  2  0
  3  4  1  0
  4  5  2  0
  4  6  1  0
  6  7  2  0
  7  8  1  0
  8  9  2  0
  9 10  1  0
 10 11  2  0
 11 12  1  0
 11 13  1  0
 13 14  2  0
  3 15  1  0
 15 16  1  0
 15 17  2  0
 17 18  1  0
 18 19  1  0
 18 20  2  0
 20 21  1  0
 21 22  1  0
 22 23  1  0
 23 24  1  0
 24 25  1  0
 24 26  1  0
 26 27  1  0
 27 28  1  0
  7  1  1  0
 14  8  1  0
 28 22  1  0
 20  2  1  0
M  END
>  <IC50>  (29) 
45.35

>  <cmpdNO>  (29) 
31

$$$$

     RDKit          2D

 34 38  0  0  0  0  0  0  0  0999 V2000
    2.8824   -0.0325    0.0000 O   0  0  0  0  0  0  0  0  0  0  0  0
    1.8268    1.0332    0.0000 C   0  0  0  0  0  0  0  0  0  0  0  0
    2.2219    2.4802    0.0000 C   0  0  0  0  0  0  0  0  0  0  0  0
    3.6727    2.8615    0.0000 C   0  0  0  0  0  0  0  0  0  0  0  0
    4.0678    4.3085    0.0000 O   0  0  0  0  0  0  0  0  0  0  0  0
    4.7282    1.7958    0.0000 C   0  0  0  0  0  0  0  0  0  0  0  0
    4.3331    0.3488    0.0000 C   0  0  0  0  0  0  0  0  0  0  0  0
    5.3887   -0.7170    0.0000 C   0  0  0  0  0  0  0  0  0  0  0  0
    4.9935   -2.1640    0.0000 C   0  0  0  0  0  0  0  0  0  0  0  0
    6.0491   -3.2297    0.0000 C   0  0  0  0  0  0  0  0  0  0  0  0
    7.4998   -2.8484    0.0000 C   0  0  0  0  0  0  0  0  0  0  0  0
    8.5554   -3.9141    0.0000 O   0  0  0  0  0  0  0  0  0  0  0  0
    7.8950   -1.4014    0.0000 C   0  0  0  0  0  0  0  0  0  0  0  0
    6.8394   -0.3357    0.0000 C   0  0  0  0  0  0  0  0  0  0  0  0
    1.1664    3.5459    0.0000 C   0  0  0  0  0  0  0  0  0  0  0  0
    1.5615    4.9929    0.0000 O   0  0  0  0  0  0  0  0  0  0  0  0
   -0.2844    3.1646    0.0000 C   0  0  0  0  0  0  0  0  0  0  0  0
   -0.6795    1.7176    0.0000 C   0  0  0  0  0  0  0  0  0  0  0  0
   -2.1302    1.3363    0.0000 O   0  0  0  0  0  0  0  0  0  0  0  0
    0.3761    0.6519    0.0000 C   0  0  0  0  0  0  0  0  0  0  0  0
   -0.0191   -0.7951    0.0000 C   0  0  0  0  0  0  0  0  0  0  0  0
   -1.4698   -1.1764    0.0000 N   0  0  0  0  0  0  0  0  0  0  0  0
   -2.5254   -0.1107    0.0000 C   0  0  0  0  0  0  0  0  0  0  0  0
   -3.9761   -0.4920    0.0000 C   0  0  0  0  0  0  0  0  0  0  0  0
   -4.3713   -1.9390    0.0000 C   0  0  0  0  0  0  0  0  0  0  0  0
   -3.3157   -3.0047    0.0000 C   0  0  0  0  0  0  0  0  0  0  0  0
   -1.8650   -2.6234    0.0000 C   0  0  0  0  0  0  0  0  0  0  0  0
   -5.8220   -2.3203    0.0000 C   0  0  0  0  0  0  0  0  0  0  0  0
   -6.8776   -1.2546    0.0000 C   0  0  0  0  0  0  0  0  0  0  0  0
   -6.4824    0.1925    0.0000 C   0  0  0  0  0  0  0  0  0  0  0  0
   -7.5380    1.2582    0.0000 C   0  0  0  0  0  0  0  0  0  0  0  0
   -8.9887    0.8769    0.0000 C   0  0  0  0  0  0  0  0  0  0  0  0
   -9.3839   -0.5701    0.0000 C   0  0  0  0  0  0  0  0  0  0  0  0
   -8.3283   -1.6359    0.0000 C   0  0  0  0  0  0  0  0  0  0  0  0
  1  2  1  0
  2  3  2  0
  3  4  1  0
  4  5  2  0
  4  6  1  0
  6  7  2  0
  7  8  1  0
  8  9  2  0
  9 10  1  0
 10 11  2  0
 11 12  1  0
 11 13  1  0
 13 14  2  0
  3 15  1  0
 15 16  1  0
 15 17  2  0
 17 18  1  0
 18 19  1  0
 18 20  2  0
 20 21  1  0
 21 22  1  0
 22 23  1  0
 23 24  1  0
 24 25  1  0
 25 26  1  0
 26 27  1  0
 25 28  1  0
 28 29  1  0
 29 30  2  0
 30 31  1  0
 31 32  2  0
 32 33  1  0
 33 34  2  0
  7  1  1  0
 14  8  1  0
 27 22  1  0
 34 29  1  0
 20  2  1  0
M  END
>  <IC50>  (30) 
46.11

>  <cmpdNO>  (30) 
32

$$$$

     RDKit          2D

 29 32  0  0  0  0  0  0  0  0999 V2000
    1.1381    0.0475    0.0000 O   0  0  0  0  0  0  0  0  0  0  0  0
   -0.0182    1.0029    0.0000 C   0  0  0  0  0  0  0  0  0  0  0  0
    0.2310    2.4820    0.0000 C   0  0  0  0  0  0  0  0  0  0  0  0
    1.6366    3.0057    0.0000 C   0  0  0  0  0  0  0  0  0  0  0  0
    1.8859    4.4849    0.0000 O   0  0  0  0  0  0  0  0  0  0  0  0
    2.7930    2.0503    0.0000 C   0  0  0  0  0  0  0  0  0  0  0  0
    2.5437    0.5711    0.0000 C   0  0  0  0  0  0  0  0  0  0  0  0
    3.7000   -0.3843    0.0000 C   0  0  0  0  0  0  0  0  0  0  0  0
    3.4507   -1.8635    0.0000 C   0  0  0  0  0  0  0  0  0  0  0  0
    4.6071   -2.8189    0.0000 C   0  0  0  0  0  0  0  0  0  0  0  0
    6.0127   -2.2952    0.0000 C   0  0  0  0  0  0  0  0  0  0  0  0
    7.1690   -3.2507    0.0000 O   0  0  0  0  0  0  0  0  0  0  0  0
    6.2620   -0.8161    0.0000 C   0  0  0  0  0  0  0  0  0  0  0  0
    5.1056    0.1394    0.0000 C   0  0  0  0  0  0  0  0  0  0  0  0
   -0.9253    3.4375    0.0000 C   0  0  0  0  0  0  0  0  0  0  0  0
   -0.6760    4.9166    0.0000 O   0  0  0  0  0  0  0  0  0  0  0  0
   -2.3309    2.9138    0.0000 C   0  0  0  0  0  0  0  0  0  0  0  0
   -2.5802    1.4347    0.0000 C   0  0  0  0  0  0  0  0  0  0  0  0
   -3.6438    1.1807    0.0000 O   0  0  0  0  0  0  0  0  0  0  0  0
   -1.4239    0.4792    0.0000 C   0  0  0  0  0  0  0  0  0  0  0  0
   -1.6731   -0.9999    0.0000 C   0  0  0  0  0  0  0  0  0  0  0  0
   -3.0788   -1.5236    0.0000 N   0  0  0  0  0  0  0  0  0  0  0  0
   -4.2351   -0.5682    0.0000 C   0  0  0  0  0  0  0  0  0  0  0  0
   -5.6407   -1.0918    0.0000 C   0  0  0  0  0  0  0  0  0  0  0  0
   -5.8900   -2.5710    0.0000 O   0  0  0  0  0  0  0  0  0  0  0  0
   -4.7337   -3.5264    0.0000 C   0  0  0  0  0  0  0  0  0  0  0  0
   -3.3280   -3.0027    0.0000 C   0  0  0  0  0  0  0  0  0  0  0  0
   -2.1717   -3.9582    0.0000 C   0  0  0  0  0  0  0  0  0  0  0  0
   -4.1862    0.5243    0.0000 C   0  0  0  0  0  0  0  0  0  0  0  0
  1  2  1  0
  2  3  2  0
  3  4  1  0
  4  5  2  0
  4  6  1  0
  6  7  2  0
  7  8  1  0
  8  9  2  0
  9 10  1  0
 10 11  2  0
 11 12  1  0
 11 13  1  0
 13 14  2  0
  3 15  1  0
 15 16  1  0
 15 17  2  0
 17 18  1  0
 18 19  1  0
 18 20  2  0
 20 21  1  0
 21 22  1  0
 22 23  1  0
 23 24  1  0
 24 25  1  0
 25 26  1  0
 26 27  1  0
 27 28  1  0
 23 29  1  0
  7  1  1  0
 14  8  1  0
 27 22  1  0
 20  2  1  0
M  END
>  <IC50>  (31) 
63.95

>  <cmpdNO>  (31) 
33

$$$$

     RDKit          2D

 34 38  0  0  0  0  0  0  0  0999 V2000
    2.8824   -0.0325    0.0000 O   0  0  0  0  0  0  0  0  0  0  0  0
    1.8268    1.0332    0.0000 C   0  0  0  0  0  0  0  0  0  0  0  0
    2.2219    2.4802    0.0000 C   0  0  0  0  0  0  0  0  0  0  0  0
    3.6727    2.8615    0.0000 C   0  0  0  0  0  0  0  0  0  0  0  0
    4.0678    4.3085    0.0000 O   0  0  0  0  0  0  0  0  0  0  0  0
    4.7282    1.7958    0.0000 C   0  0  0  0  0  0  0  0  0  0  0  0
    4.3331    0.3488    0.0000 C   0  0  0  0  0  0  0  0  0  0  0  0
    5.3887   -0.7170    0.0000 C   0  0  0  0  0  0  0  0  0  0  0  0
    4.9935   -2.1640    0.0000 C   0  0  0  0  0  0  0  0  0  0  0  0
    6.0491   -3.2297    0.0000 C   0  0  0  0  0  0  0  0  0  0  0  0
    7.4998   -2.8484    0.0000 C   0  0  0  0  0  0  0  0  0  0  0  0
    8.5554   -3.9141    0.0000 O   0  0  0  0  0  0  0  0  0  0  0  0
    7.8950   -1.4014    0.0000 C   0  0  0  0  0  0  0  0  0  0  0  0
    6.8394   -0.3357    0.0000 C   0  0  0  0  0  0  0  0  0  0  0  0
    1.1664    3.5459    0.0000 C   0  0  0  0  0  0  0  0  0  0  0  0
    1.5615    4.9929    0.0000 O   0  0  0  0  0  0  0  0  0  0  0  0
   -0.2844    3.1646    0.0000 C   0  0  0  0  0  0  0  0  0  0  0  0
   -0.6795    1.7176    0.0000 C   0  0  0  0  0  0  0  0  0  0  0  0
   -2.1302    1.3363    0.0000 O   0  0  0  0  0  0  0  0  0  0  0  0
    0.3761    0.6519    0.0000 C   0  0  0  0  0  0  0  0  0  0  0  0
   -0.0191   -0.7951    0.0000 C   0  0  0  0  0  0  0  0  0  0  0  0
   -1.4698   -1.1764    0.0000 N   0  0  0  0  0  0  0  0  0  0  0  0
   -2.5254   -0.1107    0.0000 C   0  0  0  0  0  0  0  0  0  0  0  0
   -3.9761   -0.4920    0.0000 C   0  0  0  0  0  0  0  0  0  0  0  0
   -4.3713   -1.9390    0.0000 N   0  0  0  0  0  0  0  0  0  0  0  0
   -3.3157   -3.0047    0.0000 C   0  0  0  0  0  0  0  0  0  0  0  0
   -1.8650   -2.6234    0.0000 C   0  0  0  0  0  0  0  0  0  0  0  0
   -5.8220   -2.3203    0.0000 C   0  0  0  0  0  0  0  0  0  0  0  0
   -6.8776   -1.2546    0.0000 C   0  0  0  0  0  0  0  0  0  0  0  0
   -6.4824    0.1925    0.0000 C   0  0  0  0  0  0  0  0  0  0  0  0
   -7.5380    1.2582    0.0000 C   0  0  0  0  0  0  0  0  0  0  0  0
   -8.9887    0.8769    0.0000 C   0  0  0  0  0  0  0  0  0  0  0  0
   -9.3839   -0.5701    0.0000 C   0  0  0  0  0  0  0  0  0  0  0  0
   -8.3283   -1.6359    0.0000 C   0  0  0  0  0  0  0  0  0  0  0  0
  1  2  1  0
  2  3  2  0
  3  4  1  0
  4  5  2  0
  4  6  1  0
  6  7  2  0
  7  8  1  0
  8  9  2  0
  9 10  1  0
 10 11  2  0
 11 12  1  0
 11 13  1  0
 13 14  2  0
  3 15  1  0
 15 16  1  0
 15 17  2  0
 17 18  1  0
 18 19  1  0
 18 20  2  0
 20 21  1  0
 21 22  1  0
 22 23  1  0
 23 24  1  0
 24 25  1  0
 25 26  1  0
 26 27  1  0
 25 28  1  0
 28 29  1  0
 29 30  2  0
 30 31  1  0
 31 32  2  0
 32 33  1  0
 33 34  2  0
  7  1  1  0
 14  8  1  0
 27 22  1  0
 34 29  1  0
 20  2  1  0
M  END
>  <IC50>  (32) 
48.54

>  <cmpdNO>  (32) 
34

$$$$

     RDKit          2D

 27 30  0  0  0  0  0  0  0  0999 V2000
    0.9169   -0.0444    0.0000 O   0  0  0  0  0  0  0  0  0  0  0  0
   -0.2654    0.8787    0.0000 C   0  0  0  0  0  0  0  0  0  0  0  0
   -0.0571    2.3642    0.0000 C   0  0  0  0  0  0  0  0  0  0  0  0
    1.3335    2.9265    0.0000 C   0  0  0  0  0  0  0  0  0  0  0  0
    1.5418    4.4120    0.0000 O   0  0  0  0  0  0  0  0  0  0  0  0
    2.5158    2.0034    0.0000 C   0  0  0  0  0  0  0  0  0  0  0  0
    2.3075    0.5179    0.0000 C   0  0  0  0  0  0  0  0  0  0  0  0
    3.4898   -0.4052    0.0000 C   0  0  0  0  0  0  0  0  0  0  0  0
    3.2814   -1.8907    0.0000 C   0  0  0  0  0  0  0  0  0  0  0  0
    4.4637   -2.8138    0.0000 C   0  0  0  0  0  0  0  0  0  0  0  0
    5.8543   -2.2515    0.0000 C   0  0  0  0  0  0  0  0  0  0  0  0
    7.0366   -3.1747    0.0000 O   0  0  0  0  0  0  0  0  0  0  0  0
    6.0627   -0.7661    0.0000 C   0  0  0  0  0  0  0  0  0  0  0  0
    4.8804    0.1571    0.0000 C   0  0  0  0  0  0  0  0  0  0  0  0
   -1.2394    3.2873    0.0000 C   0  0  0  0  0  0  0  0  0  0  0  0
   -1.0311    4.7728    0.0000 O   0  0  0  0  0  0  0  0  0  0  0  0
   -2.6300    2.7250    0.0000 C   0  0  0  0  0  0  0  0  0  0  0  0
   -2.8383    1.2395    0.0000 C   0  0  0  0  0  0  0  0  0  0  0  0
   -4.2289    0.6772    0.0000 O   0  0  0  0  0  0  0  0  0  0  0  0
   -1.6560    0.3164    0.0000 C   0  0  0  0  0  0  0  0  0  0  0  0
   -1.8644   -1.1691    0.0000 C   0  0  0  0  0  0  0  0  0  0  0  0
   -3.2550   -1.7314    0.0000 N   0  0  0  0  0  0  0  0  0  0  0  0
   -4.4373   -0.8083    0.0000 C   0  0  0  0  0  0  0  0  0  0  0  0
   -5.8279   -1.3706    0.0000 C   0  0  0  0  0  0  0  0  0  0  0  0
   -6.0362   -2.8561    0.0000 O   0  0  0  0  0  0  0  0  0  0  0  0
   -4.8539   -3.7792    0.0000 C   0  0  0  0  0  0  0  0  0  0  0  0
   -3.4633   -3.2169    0.0000 C   0  0  0  0  0  0  0  0  0  0  0  0
  1  2  1  0
  2  3  2  0
  3  4  1  0
  4  5  2  0
  4  6  1  0
  6  7  2  0
  7  8  1  0
  8  9  2  0
  9 10  1  0
 10 11  2  0
 11 12  1  0
 11 13  1  0
 13 14  2  0
  3 15  1  0
 15 16  1  0
 15 17  2  0
 17 18  1  0
 18 19  1  0
 18 20  2  0
 20 21  1  0
 21 22  1  0
 22 23  1  0
 23 24  1  0
 24 25  1  0
 25 26  1  0
 26 27  1  0
  7  1  1  0
 14  8  1  0
 27 22  1  0
 20  2  1  0
M  END
>  <IC50>  (33) 
50.49

>  <cmpdNO>  (33) 
36

$$$$

     RDKit          2D

 28 31  0  0  0  0  0  0  0  0999 V2000
    1.1843   -0.0267    0.0000 O   0  0  0  0  0  0  0  0  0  0  0  0
    0.0879    0.9969    0.0000 C   0  0  0  0  0  0  0  0  0  0  0  0
    0.4261    2.4583    0.0000 C   0  0  0  0  0  0  0  0  0  0  0  0
    1.8608    2.8960    0.0000 C   0  0  0  0  0  0  0  0  0  0  0  0
    2.1991    4.3574    0.0000 O   0  0  0  0  0  0  0  0  0  0  0  0
    2.9573    1.8724    0.0000 C   0  0  0  0  0  0  0  0  0  0  0  0
    2.6190    0.4111    0.0000 C   0  0  0  0  0  0  0  0  0  0  0  0
    3.7155   -0.6125    0.0000 C   0  0  0  0  0  0  0  0  0  0  0  0
    3.3773   -2.0739    0.0000 C   0  0  0  0  0  0  0  0  0  0  0  0
    4.4737   -3.0975    0.0000 C   0  0  0  0  0  0  0  0  0  0  0  0
    5.9084   -2.6598    0.0000 C   0  0  0  0  0  0  0  0  0  0  0  0
    7.0049   -3.6834    0.0000 O   0  0  0  0  0  0  0  0  0  0  0  0
    6.2467   -1.1984    0.0000 C   0  0  0  0  0  0  0  0  0  0  0  0
    5.1502   -0.1748    0.0000 C   0  0  0  0  0  0  0  0  0  0  0  0
   -0.6703    3.4819    0.0000 C   0  0  0  0  0  0  0  0  0  0  0  0
   -0.3321    4.9433    0.0000 O   0  0  0  0  0  0  0  0  0  0  0  0
   -2.1050    3.0442    0.0000 C   0  0  0  0  0  0  0  0  0  0  0  0
   -2.4433    1.5828    0.0000 C   0  0  0  0  0  0  0  0  0  0  0  0
   -3.8780    1.1450    0.0000 O   0  0  0  0  0  0  0  0  0  0  0  0
   -1.3468    0.5592    0.0000 C   0  0  0  0  0  0  0  0  0  0  0  0
   -1.6851   -0.9022    0.0000 C   0  0  0  0  0  0  0  0  0  0  0  0
   -3.1198   -1.3399    0.0000 N   0  0  0  0  0  0  0  0  0  0  0  0
   -4.2162   -0.3163    0.0000 C   0  0  0  0  0  0  0  0  0  0  0  0
   -5.6509   -0.7541    0.0000 C   0  0  0  0  0  0  0  0  0  0  0  0
   -5.9892   -2.2154    0.0000 C   0  0  0  0  0  0  0  0  0  0  0  0
   -7.4239   -2.6532    0.0000 O   0  0  0  0  0  0  0  0  0  0  0  0
   -4.8927   -3.2391    0.0000 C   0  0  0  0  0  0  0  0  0  0  0  0
   -3.4580   -2.8013    0.0000 C   0  0  0  0  0  0  0  0  0  0  0  0
  1  2  1  0
  2  3  2  0
  3  4  1  0
  4  5  2  0
  4  6  1  0
  6  7  2  0
  7  8  1  0
  8  9  2  0
  9 10  1  0
 10 11  2  0
 11 12  1  0
 11 13  1  0
 13 14  2  0
  3 15  1  0
 15 16  1  0
 15 17  2  0
 17 18  1  0
 18 19  1  0
 18 20  2  0
 20 21  1  0
 21 22  1  0
 22 23  1  0
 23 24  1  0
 24 25  1  0
 25 26  1  0
 25 27  1  0
 27 28  1  0
  7  1  1  0
 14  8  1  0
 28 22  1  0
 20  2  1  0
M  END
>  <IC50>  (34) 
167.52

>  <cmpdNO>  (34) 
37

$$$$

     RDKit          2D

 29 32  0  0  0  0  0  0  0  0999 V2000
    0.8391    0.2779    0.0000 O   0  0  0  0  0  0  0  0  0  0  0  0
   -0.3766    1.1566    0.0000 C   0  0  0  0  0  0  0  0  0  0  0  0
   -0.2235    2.6487    0.0000 C   0  0  0  0  0  0  0  0  0  0  0  0
    1.1453    3.2622    0.0000 C   0  0  0  0  0  0  0  0  0  0  0  0
    1.2985    4.7543    0.0000 O   0  0  0  0  0  0  0  0  0  0  0  0
    2.3610    2.3835    0.0000 C   0  0  0  0  0  0  0  0  0  0  0  0
    2.2079    0.8913    0.0000 C   0  0  0  0  0  0  0  0  0  0  0  0
    3.4236    0.0126    0.0000 C   0  0  0  0  0  0  0  0  0  0  0  0
    3.2704   -1.4796    0.0000 C   0  0  0  0  0  0  0  0  0  0  0  0
    4.4861   -2.3583    0.0000 C   0  0  0  0  0  0  0  0  0  0  0  0
    4.3329   -3.8504    0.0000 O   0  0  0  0  0  0  0  0  0  0  0  0
    5.8549   -1.7448    0.0000 C   0  0  0  0  0  0  0  0  0  0  0  0
    7.0706   -2.6235    0.0000 O   0  0  0  0  0  0  0  0  0  0  0  0
    6.0081   -0.2527    0.0000 C   0  0  0  0  0  0  0  0  0  0  0  0
    4.7924    0.6261    0.0000 C   0  0  0  0  0  0  0  0  0  0  0  0
   -1.4392    3.5274    0.0000 C   0  0  0  0  0  0  0  0  0  0  0  0
   -1.2860    5.0196    0.0000 O   0  0  0  0  0  0  0  0  0  0  0  0
   -2.8080    2.9140    0.0000 C   0  0  0  0  0  0  0  0  0  0  0  0
   -2.9611    1.4218    0.0000 C   0  0  0  0  0  0  0  0  0  0  0  0
   -4.3299    0.8084    0.0000 O   0  0  0  0  0  0  0  0  0  0  0  0
   -1.7454    0.5431    0.0000 C   0  0  0  0  0  0  0  0  0  0  0  0
   -1.8986   -0.9490    0.0000 C   0  0  0  0  0  0  0  0  0  0  0  0
   -3.2674   -1.5625    0.0000 N   0  0  0  0  0  0  0  0  0  0  0  0
   -4.4831   -0.6838    0.0000 C   0  0  0  0  0  0  0  0  0  0  0  0
   -5.8519   -1.2972    0.0000 C   0  0  0  0  0  0  0  0  0  0  0  0
   -6.0051   -2.7894    0.0000 C   0  0  0  0  0  0  0  0  0  0  0  0
   -4.7894   -3.6681    0.0000 C   0  0  0  0  0  0  0  0  0  0  0  0
   -3.4206   -3.0547    0.0000 C   0  0  0  0  0  0  0  0  0  0  0  0
   -2.2049   -3.9334    0.0000 C   0  0  0  0  0  0  0  0  0  0  0  0
  1  2  1  0
  2  3  2  0
  3  4  1  0
  4  5  2  0
  4  6  1  0
  6  7  2  0
  7  8  1  0
  8  9  2  0
  9 10  1  0
 10 11  1  0
 10 12  2  0
 12 13  1  0
 12 14  1  0
 14 15  2  0
  3 16  1  0
 16 17  1  0
 16 18  2  0
 18 19  1  0
 19 20  1  0
 19 21  2  0
 21 22  1  0
 22 23  1  0
 23 24  1  0
 24 25  1  0
 25 26  1  0
 26 27  1  0
 27 28  1  0
 28 29  1  0
  7  1  1  0
 15  8  1  0
 28 23  1  0
 21  2  1  0
M  END
>  <IC50>  (35) 
161.18

>  <cmpdNO>  (35) 
38

$$$$

     RDKit          2D

 30 33  0  0  0  0  0  0  0  0999 V2000
    0.9755    0.2653    0.0000 O   0  0  0  0  0  0  0  0  0  0  0  0
   -0.2498    1.1305    0.0000 C   0  0  0  0  0  0  0  0  0  0  0  0
   -0.1131    2.6243    0.0000 C   0  0  0  0  0  0  0  0  0  0  0  0
    1.2488    3.2528    0.0000 C   0  0  0  0  0  0  0  0  0  0  0  0
    1.3855    4.7466    0.0000 O   0  0  0  0  0  0  0  0  0  0  0  0
    2.4742    2.3876    0.0000 C   0  0  0  0  0  0  0  0  0  0  0  0
    2.3375    0.8938    0.0000 C   0  0  0  0  0  0  0  0  0  0  0  0
    3.5628    0.0286    0.0000 C   0  0  0  0  0  0  0  0  0  0  0  0
    3.4262   -1.4651    0.0000 C   0  0  0  0  0  0  0  0  0  0  0  0
    4.6515   -2.3304    0.0000 C   0  0  0  0  0  0  0  0  0  0  0  0
    4.5148   -3.8241    0.0000 O   0  0  0  0  0  0  0  0  0  0  0  0
    6.0134   -1.7018    0.0000 C   0  0  0  0  0  0  0  0  0  0  0  0
    7.2388   -2.5670    0.0000 O   0  0  0  0  0  0  0  0  0  0  0  0
    6.1501   -0.2081    0.0000 C   0  0  0  0  0  0  0  0  0  0  0  0
    4.9248    0.6572    0.0000 C   0  0  0  0  0  0  0  0  0  0  0  0
   -1.3384    3.4895    0.0000 C   0  0  0  0  0  0  0  0  0  0  0  0
   -1.2018    4.9833    0.0000 O   0  0  0  0  0  0  0  0  0  0  0  0
   -2.7004    2.8610    0.0000 C   0  0  0  0  0  0  0  0  0  0  0  0
   -2.8370    1.3672    0.0000 C   0  0  0  0  0  0  0  0  0  0  0  0
   -3.8784    1.0334    0.0000 O   0  0  0  0  0  0  0  0  0  0  0  0
   -1.6117    0.5020    0.0000 C   0  0  0  0  0  0  0  0  0  0  0  0
   -1.7484   -0.9918    0.0000 C   0  0  0  0  0  0  0  0  0  0  0  0
   -3.1103   -1.6203    0.0000 N   0  0  0  0  0  0  0  0  0  0  0  0
   -3.2470   -3.1141    0.0000 C   0  0  0  0  0  0  0  0  0  0  0  0
   -4.6089   -3.7426    0.0000 C   0  0  0  0  0  0  0  0  0  0  0  0
   -5.8343   -2.8774    0.0000 O   0  0  0  0  0  0  0  0  0  0  0  0
   -5.6976   -1.3837    0.0000 C   0  0  0  0  0  0  0  0  0  0  0  0
   -4.3356   -0.7551    0.0000 C   0  0  0  0  0  0  0  0  0  0  0  0
   -4.3695    0.3379    0.0000 C   0  0  0  0  0  0  0  0  0  0  0  0
   -2.0217   -3.9793    0.0000 C   0  0  0  0  0  0  0  0  0  0  0  0
  1  2  1  0
  2  3  2  0
  3  4  1  0
  4  5  2  0
  4  6  1  0
  6  7  2  0
  7  8  1  0
  8  9  2  0
  9 10  1  0
 10 11  1  0
 10 12  2  0
 12 13  1  0
 12 14  1  0
 14 15  2  0
  3 16  1  0
 16 17  1  0
 16 18  2  0
 18 19  1  0
 19 20  1  0
 19 21  2  0
 21 22  1  0
 22 23  1  0
 23 24  1  0
 24 25  1  0
 25 26  1  0
 26 27  1  0
 27 28  1  0
 28 29  1  0
 24 30  1  0
  7  1  1  0
 15  8  1  0
 28 23  1  0
 21  2  1  0
M  END
>  <IC50>  (36) 
43.46

>  <cmpdNO>  (36) 
39

$$$$

     RDKit          2D

 29 32  0  0  0  0  0  0  0  0999 V2000
    1.0309    0.1986    0.0000 O   0  0  0  0  0  0  0  0  0  0  0  0
   -0.1303    1.1481    0.0000 C   0  0  0  0  0  0  0  0  0  0  0  0
    0.1113    2.6285    0.0000 C   0  0  0  0  0  0  0  0  0  0  0  0
    1.5142    3.1594    0.0000 C   0  0  0  0  0  0  0  0  0  0  0  0
    1.7559    4.6398    0.0000 O   0  0  0  0  0  0  0  0  0  0  0  0
    2.6755    2.2099    0.0000 C   0  0  0  0  0  0  0  0  0  0  0  0
    2.4338    0.7295    0.0000 C   0  0  0  0  0  0  0  0  0  0  0  0
    3.5951   -0.2200    0.0000 C   0  0  0  0  0  0  0  0  0  0  0  0
    3.3534   -1.7004    0.0000 C   0  0  0  0  0  0  0  0  0  0  0  0
    4.5147   -2.6499    0.0000 C   0  0  0  0  0  0  0  0  0  0  0  0
    4.2730   -4.1303    0.0000 O   0  0  0  0  0  0  0  0  0  0  0  0
    5.9176   -2.1189    0.0000 C   0  0  0  0  0  0  0  0  0  0  0  0
    7.0788   -3.0684    0.0000 O   0  0  0  0  0  0  0  0  0  0  0  0
    6.1592   -0.6385    0.0000 C   0  0  0  0  0  0  0  0  0  0  0  0
    4.9980    0.3110    0.0000 C   0  0  0  0  0  0  0  0  0  0  0  0
   -1.0499    3.5779    0.0000 C   0  0  0  0  0  0  0  0  0  0  0  0
   -0.8083    5.0584    0.0000 O   0  0  0  0  0  0  0  0  0  0  0  0
   -2.4528    3.0470    0.0000 C   0  0  0  0  0  0  0  0  0  0  0  0
   -2.6945    1.5666    0.0000 C   0  0  0  0  0  0  0  0  0  0  0  0
   -4.0973    1.0357    0.0000 O   0  0  0  0  0  0  0  0  0  0  0  0
   -1.5332    0.6171    0.0000 C   0  0  0  0  0  0  0  0  0  0  0  0
   -1.7749   -0.8633    0.0000 C   0  0  0  0  0  0  0  0  0  0  0  0
   -3.1778   -1.3942    0.0000 N   0  0  0  0  0  0  0  0  0  0  0  0
   -4.3390   -0.4447    0.0000 C   0  0  0  0  0  0  0  0  0  0  0  0
   -5.7419   -0.9757    0.0000 C   0  0  0  0  0  0  0  0  0  0  0  0
   -5.9835   -2.4561    0.0000 N   0  0  0  0  0  0  0  0  0  0  0  0
   -4.8223   -3.4055    0.0000 C   0  0  0  0  0  0  0  0  0  0  0  0
   -3.4194   -2.8746    0.0000 C   0  0  0  0  0  0  0  0  0  0  0  0
   -7.3864   -2.9870    0.0000 C   0  0  0  0  0  0  0  0  0  0  0  0
  1  2  1  0
  2  3  2  0
  3  4  1  0
  4  5  2  0
  4  6  1  0
  6  7  2  0
  7  8  1  0
  8  9  2  0
  9 10  1  0
 10 11  1  0
 10 12  2  0
 12 13  1  0
 12 14  1  0
 14 15  2  0
  3 16  1  0
 16 17  1  0
 16 18  2  0
 18 19  1  0
 19 20  1  0
 19 21  2  0
 21 22  1  0
 22 23  1  0
 23 24  1  0
 24 25  1  0
 25 26  1  0
 26 27  1  0
 27 28  1  0
 26 29  1  0
  7  1  1  0
 15  8  1  0
 28 23  1  0
 21  2  1  0
M  END
>  <IC50>  (37) 
53.82

>  <cmpdNO>  (37) 
40

$$$$

     RDKit          2D

 28 31  0  0  0  0  0  0  0  0999 V2000
    0.7545    0.1663    0.0000 O   0  0  0  0  0  0  0  0  0  0  0  0
   -0.4939    0.9979    0.0000 C   0  0  0  0  0  0  0  0  0  0  0  0
   -0.3978    2.4949    0.0000 C   0  0  0  0  0  0  0  0  0  0  0  0
    0.9466    3.1602    0.0000 C   0  0  0  0  0  0  0  0  0  0  0  0
    1.0426    4.6571    0.0000 O   0  0  0  0  0  0  0  0  0  0  0  0
    2.1949    2.3285    0.0000 C   0  0  0  0  0  0  0  0  0  0  0  0
    2.0989    0.8316    0.0000 C   0  0  0  0  0  0  0  0  0  0  0  0
    3.3472    0.0000    0.0000 C   0  0  0  0  0  0  0  0  0  0  0  0
    3.2512   -1.4969    0.0000 C   0  0  0  0  0  0  0  0  0  0  0  0
    4.4996   -2.3285    0.0000 C   0  0  0  0  0  0  0  0  0  0  0  0
    4.4036   -3.8255    0.0000 O   0  0  0  0  0  0  0  0  0  0  0  0
    5.8440   -1.6632    0.0000 C   0  0  0  0  0  0  0  0  0  0  0  0
    7.0923   -2.4949    0.0000 O   0  0  0  0  0  0  0  0  0  0  0  0
    5.9400   -0.1663    0.0000 C   0  0  0  0  0  0  0  0  0  0  0  0
    4.6916    0.6653    0.0000 C   0  0  0  0  0  0  0  0  0  0  0  0
   -1.6462    3.3265    0.0000 C   0  0  0  0  0  0  0  0  0  0  0  0
   -1.5502    4.8234    0.0000 O   0  0  0  0  0  0  0  0  0  0  0  0
   -2.9906    2.6612    0.0000 C   0  0  0  0  0  0  0  0  0  0  0  0
   -3.0866    1.1643    0.0000 C   0  0  0  0  0  0  0  0  0  0  0  0
   -4.4310    0.4990    0.0000 O   0  0  0  0  0  0  0  0  0  0  0  0
   -1.8382    0.3326    0.0000 C   0  0  0  0  0  0  0  0  0  0  0  0
   -1.9343   -1.1643    0.0000 C   0  0  0  0  0  0  0  0  0  0  0  0
   -3.2787   -1.8296    0.0000 N   0  0  0  0  0  0  0  0  0  0  0  0
   -4.5270   -0.9979    0.0000 C   0  0  0  0  0  0  0  0  0  0  0  0
   -5.8714   -1.6632    0.0000 C   0  0  0  0  0  0  0  0  0  0  0  0
   -5.9674   -3.1602    0.0000 O   0  0  0  0  0  0  0  0  0  0  0  0
   -4.7191   -3.9918    0.0000 C   0  0  0  0  0  0  0  0  0  0  0  0
   -3.3747   -3.3265    0.0000 C   0  0  0  0  0  0  0  0  0  0  0  0
  1  2  1  0
  2  3  2  0
  3  4  1  0
  4  5  2  0
  4  6  1  0
  6  7  2  0
  7  8  1  0
  8  9  2  0
  9 10  1  0
 10 11  1  0
 10 12  2  0
 12 13  1  0
 12 14  1  0
 14 15  2  0
  3 16  1  0
 16 17  1  0
 16 18  2  0
 18 19  1  0
 19 20  1  0
 19 21  2  0
 21 22  1  0
 22 23  1  0
 23 24  1  0
 24 25  1  0
 25 26  1  0
 26 27  1  0
 27 28  1  0
  7  1  1  0
 15  8  1  0
 28 23  1  0
 21  2  1  0
M  END
>  <IC50>  (38) 
81.87

>  <cmpdNO>  (38) 
41

$$$$

     RDKit          2D

 30 33  0  0  0  0  0  0  0  0999 V2000
    1.3273    0.2021    0.0000 O   0  0  0  0  0  0  0  0  0  0  0  0
    0.2136    1.2070    0.0000 C   0  0  0  0  0  0  0  0  0  0  0  0
    0.5270    2.6739    0.0000 C   0  0  0  0  0  0  0  0  0  0  0  0
    1.9541    3.1359    0.0000 C   0  0  0  0  0  0  0  0  0  0  0  0
    2.2675    4.6028    0.0000 O   0  0  0  0  0  0  0  0  0  0  0  0
    3.0678    2.1311    0.0000 C   0  0  0  0  0  0  0  0  0  0  0  0
    2.7543    0.6642    0.0000 C   0  0  0  0  0  0  0  0  0  0  0  0
    3.8680   -0.3407    0.0000 C   0  0  0  0  0  0  0  0  0  0  0  0
    3.5546   -1.8076    0.0000 C   0  0  0  0  0  0  0  0  0  0  0  0
    4.6682   -2.8125    0.0000 C   0  0  0  0  0  0  0  0  0  0  0  0
    4.3548   -4.2794    0.0000 O   0  0  0  0  0  0  0  0  0  0  0  0
    6.0953   -2.3504    0.0000 C   0  0  0  0  0  0  0  0  0  0  0  0
    7.2090   -3.3553    0.0000 O   0  0  0  0  0  0  0  0  0  0  0  0
    6.4087   -0.8836    0.0000 C   0  0  0  0  0  0  0  0  0  0  0  0
    5.2951    0.1213    0.0000 C   0  0  0  0  0  0  0  0  0  0  0  0
   -0.5866    3.6788    0.0000 C   0  0  0  0  0  0  0  0  0  0  0  0
   -0.2732    5.1457    0.0000 O   0  0  0  0  0  0  0  0  0  0  0  0
   -2.0137    3.2167    0.0000 C   0  0  0  0  0  0  0  0  0  0  0  0
   -2.3271    1.7499    0.0000 C   0  0  0  0  0  0  0  0  0  0  0  0
   -3.7542    1.2878    0.0000 O   0  0  0  0  0  0  0  0  0  0  0  0
   -1.2135    0.7450    0.0000 C   0  0  0  0  0  0  0  0  0  0  0  0
   -1.5269   -0.7219    0.0000 C   0  0  0  0  0  0  0  0  0  0  0  0
   -2.9539   -1.1839    0.0000 N   0  0  0  0  0  0  0  0  0  0  0  0
   -4.0676   -0.1791    0.0000 C   0  0  0  0  0  0  0  0  0  0  0  0
   -5.4947   -0.6411    0.0000 C   0  0  0  0  0  0  0  0  0  0  0  0
   -5.8081   -2.1080    0.0000 C   0  0  0  0  0  0  0  0  0  0  0  0
   -4.6944   -3.1128    0.0000 C   0  0  0  0  0  0  0  0  0  0  0  0
   -3.2674   -2.6508    0.0000 C   0  0  0  0  0  0  0  0  0  0  0  0
   -7.2352   -2.5700    0.0000 C   0  0  0  0  0  0  0  0  0  0  0  0
   -8.3488   -1.5651    0.0000 O   0  0  0  0  0  0  0  0  0  0  0  0
  1  2  1  0
  2  3  2  0
  3  4  1  0
  4  5  2  0
  4  6  1  0
  6  7  2  0
  7  8  1  0
  8  9  2  0
  9 10  1  0
 10 11  1  0
 10 12  2  0
 12 13  1  0
 12 14  1  0
 14 15  2  0
  3 16  1  0
 16 17  1  0
 16 18  2  0
 18 19  1  0
 19 20  1  0
 19 21  2  0
 21 22  1  0
 22 23  1  0
 23 24  1  0
 24 25  1  0
 25 26  1  0
 26 27  1  0
 27 28  1  0
 26 29  1  0
 29 30  1  0
  7  1  1  0
 15  8  1  0
 28 23  1  0
 21  2  1  0
M  END
>  <IC50>  (39) 
64.21

>  <cmpdNO>  (39) 
42

$$$$

     RDKit          2D

 29 32  0  0  0  0  0  0  0  0999 V2000
    1.0037    0.1748    0.0000 O   0  0  0  0  0  0  0  0  0  0  0  0
   -0.2276    1.0314    0.0000 C   0  0  0  0  0  0  0  0  0  0  0  0
   -0.1014    2.5261    0.0000 C   0  0  0  0  0  0  0  0  0  0  0  0
    1.2561    3.1642    0.0000 C   0  0  0  0  0  0  0  0  0  0  0  0
    1.3822    4.6589    0.0000 O   0  0  0  0  0  0  0  0  0  0  0  0
    2.4874    2.3076    0.0000 C   0  0  0  0  0  0  0  0  0  0  0  0
    2.3613    0.8129    0.0000 C   0  0  0  0  0  0  0  0  0  0  0  0
    3.5926   -0.0437    0.0000 C   0  0  0  0  0  0  0  0  0  0  0  0
    3.4664   -1.5384    0.0000 C   0  0  0  0  0  0  0  0  0  0  0  0
    4.6978   -2.3950    0.0000 C   0  0  0  0  0  0  0  0  0  0  0  0
    4.5716   -3.8897    0.0000 O   0  0  0  0  0  0  0  0  0  0  0  0
    6.0553   -1.7569    0.0000 C   0  0  0  0  0  0  0  0  0  0  0  0
    7.2867   -2.6135    0.0000 O   0  0  0  0  0  0  0  0  0  0  0  0
    6.1815   -0.2622    0.0000 C   0  0  0  0  0  0  0  0  0  0  0  0
    4.9501    0.5944    0.0000 C   0  0  0  0  0  0  0  0  0  0  0  0
   -1.3328    3.3827    0.0000 C   0  0  0  0  0  0  0  0  0  0  0  0
   -1.2066    4.8774    0.0000 O   0  0  0  0  0  0  0  0  0  0  0  0
   -2.6903    2.7446    0.0000 C   0  0  0  0  0  0  0  0  0  0  0  0
   -2.8165    1.2500    0.0000 C   0  0  0  0  0  0  0  0  0  0  0  0
   -4.1740    0.6119    0.0000 O   0  0  0  0  0  0  0  0  0  0  0  0
   -1.5851    0.3933    0.0000 C   0  0  0  0  0  0  0  0  0  0  0  0
   -1.7113   -1.1013    0.0000 C   0  0  0  0  0  0  0  0  0  0  0  0
   -3.0688   -1.7394    0.0000 N   0  0  0  0  0  0  0  0  0  0  0  0
   -4.3002   -0.8828    0.0000 C   0  0  0  0  0  0  0  0  0  0  0  0
   -5.6577   -1.5209    0.0000 C   0  0  0  0  0  0  0  0  0  0  0  0
   -6.8890   -0.6643    0.0000 O   0  0  0  0  0  0  0  0  0  0  0  0
   -5.7839   -3.0156    0.0000 C   0  0  0  0  0  0  0  0  0  0  0  0
   -4.5525   -3.8722    0.0000 C   0  0  0  0  0  0  0  0  0  0  0  0
   -3.1950   -3.2341    0.0000 C   0  0  0  0  0  0  0  0  0  0  0  0
  1  2  1  0
  2  3  2  0
  3  4  1  0
  4  5  2  0
  4  6  1  0
  6  7  2  0
  7  8  1  0
  8  9  2  0
  9 10  1  0
 10 11  1  0
 10 12  2  0
 12 13  1  0
 12 14  1  0
 14 15  2  0
  3 16  1  0
 16 17  1  0
 16 18  2  0
 18 19  1  0
 19 20  1  0
 19 21  2  0
 21 22  1  0
 22 23  1  0
 23 24  1  0
 24 25  1  0
 25 26  1  0
 25 27  1  0
 27 28  1  0
 28 29  1  0
  7  1  1  0
 15  8  1  0
 29 23  1  0
 21  2  1  0
M  END
>  <IC50>  (40) 
63.63

>  <cmpdNO>  (40) 
43

$$$$

     RDKit          2D

 28 31  0  0  0  0  0  0  0  0999 V2000
    0.7545    0.1663    0.0000 O   0  0  0  0  0  0  0  0  0  0  0  0
   -0.4939    0.9979    0.0000 C   0  0  0  0  0  0  0  0  0  0  0  0
   -0.3978    2.4949    0.0000 C   0  0  0  0  0  0  0  0  0  0  0  0
    0.9466    3.1602    0.0000 C   0  0  0  0  0  0  0  0  0  0  0  0
    1.0426    4.6571    0.0000 O   0  0  0  0  0  0  0  0  0  0  0  0
    2.1949    2.3285    0.0000 C   0  0  0  0  0  0  0  0  0  0  0  0
    2.0989    0.8316    0.0000 C   0  0  0  0  0  0  0  0  0  0  0  0
    3.3472    0.0000    0.0000 C   0  0  0  0  0  0  0  0  0  0  0  0
    3.2512   -1.4969    0.0000 C   0  0  0  0  0  0  0  0  0  0  0  0
    4.4996   -2.3285    0.0000 C   0  0  0  0  0  0  0  0  0  0  0  0
    4.4036   -3.8255    0.0000 O   0  0  0  0  0  0  0  0  0  0  0  0
    5.8440   -1.6632    0.0000 C   0  0  0  0  0  0  0  0  0  0  0  0
    7.0923   -2.4949    0.0000 O   0  0  0  0  0  0  0  0  0  0  0  0
    5.9400   -0.1663    0.0000 C   0  0  0  0  0  0  0  0  0  0  0  0
    4.6916    0.6653    0.0000 C   0  0  0  0  0  0  0  0  0  0  0  0
   -1.6462    3.3265    0.0000 C   0  0  0  0  0  0  0  0  0  0  0  0
   -1.5502    4.8234    0.0000 O   0  0  0  0  0  0  0  0  0  0  0  0
   -2.9906    2.6612    0.0000 C   0  0  0  0  0  0  0  0  0  0  0  0
   -3.0866    1.1643    0.0000 C   0  0  0  0  0  0  0  0  0  0  0  0
   -4.4310    0.4990    0.0000 O   0  0  0  0  0  0  0  0  0  0  0  0
   -1.8382    0.3326    0.0000 C   0  0  0  0  0  0  0  0  0  0  0  0
   -1.9343   -1.1643    0.0000 C   0  0  0  0  0  0  0  0  0  0  0  0
   -3.2787   -1.8296    0.0000 N   0  0  0  0  0  0  0  0  0  0  0  0
   -4.5270   -0.9979    0.0000 C   0  0  0  0  0  0  0  0  0  0  0  0
   -5.8714   -1.6632    0.0000 C   0  0  0  0  0  0  0  0  0  0  0  0
   -5.9674   -3.1602    0.0000 C   0  0  0  0  0  0  0  0  0  0  0  0
   -4.7191   -3.9918    0.0000 C   0  0  0  0  0  0  0  0  0  0  0  0
   -3.3747   -3.3265    0.0000 C   0  0  0  0  0  0  0  0  0  0  0  0
  1  2  1  0
  2  3  2  0
  3  4  1  0
  4  5  2  0
  4  6  1  0
  6  7  2  0
  7  8  1  0
  8  9  2  0
  9 10  1  0
 10 11  1  0
 10 12  2  0
 12 13  1  0
 12 14  1  0
 14 15  2  0
  3 16  1  0
 16 17  1  0
 16 18  2  0
 18 19  1  0
 19 20  1  0
 19 21  2  0
 21 22  1  0
 22 23  1  0
 23 24  1  0
 24 25  1  0
 25 26  1  0
 26 27  1  0
 27 28  1  0
  7  1  1  0
 15  8  1  0
 28 23  1  0
 21  2  1  0
M  END
>  <IC50>  (41) 
62.87

>  <cmpdNO>  (41) 
44

$$$$

     RDKit          2D

 28 31  0  0  0  0  0  0  0  0999 V2000
    1.7109   -0.3258    0.0000 O   0  0  0  0  0  0  0  0  0  0  0  0
    0.7572    0.8320    0.0000 C   0  0  0  0  0  0  0  0  0  0  0  0
    1.2831    2.2368    0.0000 C   0  0  0  0  0  0  0  0  0  0  0  0
    2.7626    2.4838    0.0000 C   0  0  0  0  0  0  0  0  0  0  0  0
    3.2884    3.8887    0.0000 O   0  0  0  0  0  0  0  0  0  0  0  0
    3.7163    1.3261    0.0000 C   0  0  0  0  0  0  0  0  0  0  0  0
    3.1905   -0.0788    0.0000 C   0  0  0  0  0  0  0  0  0  0  0  0
    4.1442   -1.2365    0.0000 C   0  0  0  0  0  0  0  0  0  0  0  0
    3.6183   -2.6414    0.0000 C   0  0  0  0  0  0  0  0  0  0  0  0
    4.5720   -3.7991    0.0000 C   0  0  0  0  0  0  0  0  0  0  0  0
    6.0516   -3.5521    0.0000 C   0  0  0  0  0  0  0  0  0  0  0  0
    6.5774   -2.1473    0.0000 C   0  0  0  0  0  0  0  0  0  0  0  0
    5.6237   -0.9895    0.0000 C   0  0  0  0  0  0  0  0  0  0  0  0
    0.3294    3.3946    0.0000 C   0  0  0  0  0  0  0  0  0  0  0  0
    0.8552    4.7994    0.0000 O   0  0  0  0  0  0  0  0  0  0  0  0
   -1.1502    3.1475    0.0000 C   0  0  0  0  0  0  0  0  0  0  0  0
   -1.6760    1.7427    0.0000 C   0  0  0  0  0  0  0  0  0  0  0  0
   -3.1555    1.4957    0.0000 O   0  0  0  0  0  0  0  0  0  0  0  0
   -0.7223    0.5849    0.0000 C   0  0  0  0  0  0  0  0  0  0  0  0
   -1.2481   -0.8199    0.0000 C   0  0  0  0  0  0  0  0  0  0  0  0
   -2.7276   -1.0669    0.0000 N   0  0  0  0  0  0  0  0  0  0  0  0
   -3.6813    0.0909    0.0000 C   0  0  0  0  0  0  0  0  0  0  0  0
   -5.1608   -0.1562    0.0000 C   0  0  0  0  0  0  0  0  0  0  0  0
   -5.6866   -1.5610    0.0000 C   0  0  0  0  0  0  0  0  0  0  0  0
   -4.7329   -2.7188    0.0000 C   0  0  0  0  0  0  0  0  0  0  0  0
   -3.2534   -2.4717    0.0000 C   0  0  0  0  0  0  0  0  0  0  0  0
   -7.1662   -1.8080    0.0000 C   0  0  0  0  0  0  0  0  0  0  0  0
   -8.1199   -0.6502    0.0000 O   0  0  0  0  0  0  0  0  0  0  0  0
  1  2  1  0
  2  3  2  0
  3  4  1  0
  4  5  2  0
  4  6  1  0
  6  7  2  0
  7  8  1  0
  8  9  2  0
  9 10  1  0
 10 11  2  0
 11 12  1  0
 12 13  2  0
  3 14  1  0
 14 15  1  0
 14 16  2  0
 16 17  1  0
 17 18  1  0
 17 19  2  0
 19 20  1  0
 20 21  1  0
 21 22  1  0
 22 23  1  0
 23 24  1  0
 24 25  1  0
 25 26  1  0
 24 27  1  0
 27 28  1  0
  7  1  1  0
 13  8  1  0
 26 21  1  0
 19  2  1  0
M  END
>  <IC50>  (42) 
83.7

>  <cmpdNO>  (42) 
45

$$$$

     RDKit          2D

 29 32  0  0  0  0  0  0  0  0999 V2000
    2.0355   -0.3368    0.0000 O   0  0  0  0  0  0  0  0  0  0  0  0
    1.1058    0.8404    0.0000 C   0  0  0  0  0  0  0  0  0  0  0  0
    1.6604    2.2341    0.0000 C   0  0  0  0  0  0  0  0  0  0  0  0
    3.1447    2.4506    0.0000 C   0  0  0  0  0  0  0  0  0  0  0  0
    3.6993    3.8443    0.0000 O   0  0  0  0  0  0  0  0  0  0  0  0
    4.0743    1.2735    0.0000 C   0  0  0  0  0  0  0  0  0  0  0  0
    3.5197   -0.1202    0.0000 C   0  0  0  0  0  0  0  0  0  0  0  0
    4.4494   -1.2974    0.0000 C   0  0  0  0  0  0  0  0  0  0  0  0
    3.8948   -2.6911    0.0000 C   0  0  0  0  0  0  0  0  0  0  0  0
    4.8245   -3.8682    0.0000 C   0  0  0  0  0  0  0  0  0  0  0  0
    6.3088   -3.6517    0.0000 C   0  0  0  0  0  0  0  0  0  0  0  0
    6.8634   -2.2580    0.0000 C   0  0  0  0  0  0  0  0  0  0  0  0
    5.9337   -1.0808    0.0000 C   0  0  0  0  0  0  0  0  0  0  0  0
    0.7307    3.4112    0.0000 C   0  0  0  0  0  0  0  0  0  0  0  0
    1.2853    4.8049    0.0000 O   0  0  0  0  0  0  0  0  0  0  0  0
   -0.7536    3.1947    0.0000 C   0  0  0  0  0  0  0  0  0  0  0  0
   -1.3082    1.8010    0.0000 C   0  0  0  0  0  0  0  0  0  0  0  0
   -2.7925    1.5844    0.0000 O   0  0  0  0  0  0  0  0  0  0  0  0
   -0.3785    0.6238    0.0000 C   0  0  0  0  0  0  0  0  0  0  0  0
   -0.9331   -0.7699    0.0000 C   0  0  0  0  0  0  0  0  0  0  0  0
   -2.4174   -0.9865    0.0000 N   0  0  0  0  0  0  0  0  0  0  0  0
   -3.3471    0.1907    0.0000 C   0  0  0  0  0  0  0  0  0  0  0  0
   -4.8314   -0.0259    0.0000 C   0  0  0  0  0  0  0  0  0  0  0  0
   -5.3860   -1.4196    0.0000 N   0  0  0  0  0  0  0  0  0  0  0  0
   -4.4563   -2.5967    0.0000 C   0  0  0  0  0  0  0  0  0  0  0  0
   -2.9720   -2.3802    0.0000 C   0  0  0  0  0  0  0  0  0  0  0  0
   -6.8702   -1.6361    0.0000 C   0  0  0  0  0  0  0  0  0  0  0  0
   -7.7999   -0.4590    0.0000 C   0  0  0  0  0  0  0  0  0  0  0  0
   -9.2842   -0.6756    0.0000 O   0  0  0  0  0  0  0  0  0  0  0  0
  1  2  1  0
  2  3  2  0
  3  4  1  0
  4  5  2  0
  4  6  1  0
  6  7  2  0
  7  8  1  0
  8  9  2  0
  9 10  1  0
 10 11  2  0
 11 12  1  0
 12 13  2  0
  3 14  1  0
 14 15  1  0
 14 16  2  0
 16 17  1  0
 17 18  1  0
 17 19  2  0
 19 20  1  0
 20 21  1  0
 21 22  1  0
 22 23  1  0
 23 24  1  0
 24 25  1  0
 25 26  1  0
 24 27  1  0
 27 28  1  0
 28 29  1  0
  7  1  1  0
 13  8  1  0
 26 21  1  0
 19  2  1  0
M  END
>  <IC50>  (43) 
135.33

>  <cmpdNO>  (43) 
46

$$$$

     RDKit          2D

 27 30  0  0  0  0  0  0  0  0999 V2000
    1.4176   -0.3187    0.0000 O   0  0  0  0  0  0  0  0  0  0  0  0
    0.4386    0.8178    0.0000 C   0  0  0  0  0  0  0  0  0  0  0  0
    0.9333    2.2339    0.0000 C   0  0  0  0  0  0  0  0  0  0  0  0
    2.4070    2.5135    0.0000 C   0  0  0  0  0  0  0  0  0  0  0  0
    2.9017    3.9296    0.0000 O   0  0  0  0  0  0  0  0  0  0  0  0
    3.3860    1.3770    0.0000 C   0  0  0  0  0  0  0  0  0  0  0  0
    2.8913   -0.0391    0.0000 C   0  0  0  0  0  0  0  0  0  0  0  0
    3.8703   -1.1755    0.0000 C   0  0  0  0  0  0  0  0  0  0  0  0
    3.3756   -2.5916    0.0000 C   0  0  0  0  0  0  0  0  0  0  0  0
    4.3546   -3.7281    0.0000 C   0  0  0  0  0  0  0  0  0  0  0  0
    5.8283   -3.4484    0.0000 C   0  0  0  0  0  0  0  0  0  0  0  0
    6.3230   -2.0324    0.0000 C   0  0  0  0  0  0  0  0  0  0  0  0
    5.3440   -0.8959    0.0000 C   0  0  0  0  0  0  0  0  0  0  0  0
   -0.0457    3.3703    0.0000 C   0  0  0  0  0  0  0  0  0  0  0  0
    0.4490    4.7864    0.0000 O   0  0  0  0  0  0  0  0  0  0  0  0
   -1.5194    3.0907    0.0000 C   0  0  0  0  0  0  0  0  0  0  0  0
   -2.0141    1.6746    0.0000 C   0  0  0  0  0  0  0  0  0  0  0  0
   -3.4878    1.3950    0.0000 O   0  0  0  0  0  0  0  0  0  0  0  0
   -1.0351    0.5382    0.0000 C   0  0  0  0  0  0  0  0  0  0  0  0
   -1.5298   -0.8779    0.0000 C   0  0  0  0  0  0  0  0  0  0  0  0
   -3.0035   -1.1575    0.0000 N   0  0  0  0  0  0  0  0  0  0  0  0
   -3.9825   -0.0211    0.0000 C   0  0  0  0  0  0  0  0  0  0  0  0
   -5.4563   -0.3007    0.0000 C   0  0  0  0  0  0  0  0  0  0  0  0
   -5.9509   -1.7168    0.0000 C   0  0  0  0  0  0  0  0  0  0  0  0
   -7.4247   -1.9964    0.0000 O   0  0  0  0  0  0  0  0  0  0  0  0
   -4.9719   -2.8532    0.0000 C   0  0  0  0  0  0  0  0  0  0  0  0
   -3.4982   -2.5736    0.0000 C   0  0  0  0  0  0  0  0  0  0  0  0
  1  2  1  0
  2  3  2  0
  3  4  1  0
  4  5  2  0
  4  6  1  0
  6  7  2  0
  7  8  1  0
  8  9  2  0
  9 10  1  0
 10 11  2  0
 11 12  1  0
 12 13  2  0
  3 14  1  0
 14 15  1  0
 14 16  2  0
 16 17  1  0
 17 18  1  0
 17 19  2  0
 19 20  1  0
 20 21  1  0
 21 22  1  0
 22 23  1  0
 23 24  1  0
 24 25  1  0
 24 26  1  0
 26 27  1  0
  7  1  1  0
 13  8  1  0
 27 21  1  0
 19  2  1  0
M  END
>  <IC50>  (44) 
295.26

>  <cmpdNO>  (44) 
47

$$$$

     RDKit          2D

 27 30  0  0  0  0  0  0  0  0999 V2000
    1.4118   -0.3056    0.0000 O   0  0  0  0  0  0  0  0  0  0  0  0
    0.3404    0.7443    0.0000 C   0  0  0  0  0  0  0  0  0  0  0  0
    0.7138    2.1970    0.0000 C   0  0  0  0  0  0  0  0  0  0  0  0
    2.1587    2.6000    0.0000 C   0  0  0  0  0  0  0  0  0  0  0  0
    2.5321    4.0527    0.0000 O   0  0  0  0  0  0  0  0  0  0  0  0
    3.2301    1.5502    0.0000 C   0  0  0  0  0  0  0  0  0  0  0  0
    2.8566    0.0974    0.0000 C   0  0  0  0  0  0  0  0  0  0  0  0
    3.9280   -0.9524    0.0000 C   0  0  0  0  0  0  0  0  0  0  0  0
    3.5546   -2.4052    0.0000 C   0  0  0  0  0  0  0  0  0  0  0  0
    4.6260   -3.4550    0.0000 C   0  0  0  0  0  0  0  0  0  0  0  0
    6.0708   -3.0520    0.0000 C   0  0  0  0  0  0  0  0  0  0  0  0
    6.4443   -1.5993    0.0000 C   0  0  0  0  0  0  0  0  0  0  0  0
    5.3729   -0.5495    0.0000 C   0  0  0  0  0  0  0  0  0  0  0  0
   -0.3576    3.2468    0.0000 C   0  0  0  0  0  0  0  0  0  0  0  0
    0.0159    4.6996    0.0000 O   0  0  0  0  0  0  0  0  0  0  0  0
   -1.8024    2.8439    0.0000 C   0  0  0  0  0  0  0  0  0  0  0  0
   -2.1759    1.3911    0.0000 C   0  0  0  0  0  0  0  0  0  0  0  0
   -3.6208    0.9881    0.0000 O   0  0  0  0  0  0  0  0  0  0  0  0
   -1.1045    0.3413    0.0000 C   0  0  0  0  0  0  0  0  0  0  0  0
   -1.4780   -1.1115    0.0000 C   0  0  0  0  0  0  0  0  0  0  0  0
   -2.9228   -1.5144    0.0000 N   0  0  0  0  0  0  0  0  0  0  0  0
   -3.9942   -0.4646    0.0000 C   0  0  0  0  0  0  0  0  0  0  0  0
   -5.4391   -0.8676    0.0000 C   0  0  0  0  0  0  0  0  0  0  0  0
   -6.5105    0.1822    0.0000 O   0  0  0  0  0  0  0  0  0  0  0  0
   -5.8126   -2.3203    0.0000 C   0  0  0  0  0  0  0  0  0  0  0  0
   -4.7412   -3.3701    0.0000 C   0  0  0  0  0  0  0  0  0  0  0  0
   -3.2963   -2.9672    0.0000 C   0  0  0  0  0  0  0  0  0  0  0  0
  1  2  1  0
  2  3  2  0
  3  4  1  0
  4  5  2  0
  4  6  1  0
  6  7  2  0
  7  8  1  0
  8  9  2  0
  9 10  1  0
 10 11  2  0
 11 12  1  0
 12 13  2  0
  3 14  1  0
 14 15  1  0
 14 16  2  0
 16 17  1  0
 17 18  1  0
 17 19  2  0
 19 20  1  0
 20 21  1  0
 21 22  1  0
 22 23  1  0
 23 24  1  0
 23 25  1  0
 25 26  1  0
 26 27  1  0
  7  1  1  0
 13  8  1  0
 27 21  1  0
 19  2  1  0
M  END
>  <IC50>  (45) 
258.83

>  <cmpdNO>  (45) 
48

$$$$

     RDKit          2D

 26 29  0  0  0  0  0  0  0  0999 V2000
    1.1595   -0.3058    0.0000 O   0  0  0  0  0  0  0  0  0  0  0  0
    0.0946    0.7507    0.0000 C   0  0  0  0  0  0  0  0  0  0  0  0
    0.4771    2.2011    0.0000 C   0  0  0  0  0  0  0  0  0  0  0  0
    1.9245    2.5950    0.0000 C   0  0  0  0  0  0  0  0  0  0  0  0
    2.3070    4.0454    0.0000 O   0  0  0  0  0  0  0  0  0  0  0  0
    2.9893    1.5386    0.0000 C   0  0  0  0  0  0  0  0  0  0  0  0
    2.6068    0.0882    0.0000 C   0  0  0  0  0  0  0  0  0  0  0  0
    3.6716   -0.9683    0.0000 C   0  0  0  0  0  0  0  0  0  0  0  0
    3.2891   -2.4187    0.0000 C   0  0  0  0  0  0  0  0  0  0  0  0
    4.3540   -3.4752    0.0000 C   0  0  0  0  0  0  0  0  0  0  0  0
    5.8013   -3.0813    0.0000 C   0  0  0  0  0  0  0  0  0  0  0  0
    6.1838   -1.6309    0.0000 C   0  0  0  0  0  0  0  0  0  0  0  0
    5.1190   -0.5744    0.0000 C   0  0  0  0  0  0  0  0  0  0  0  0
   -0.5877    3.2576    0.0000 C   0  0  0  0  0  0  0  0  0  0  0  0
   -0.2052    4.7080    0.0000 O   0  0  0  0  0  0  0  0  0  0  0  0
   -2.0350    2.8636    0.0000 C   0  0  0  0  0  0  0  0  0  0  0  0
   -2.4175    1.4132    0.0000 C   0  0  0  0  0  0  0  0  0  0  0  0
   -3.8649    1.0193    0.0000 O   0  0  0  0  0  0  0  0  0  0  0  0
   -1.3527    0.3567    0.0000 C   0  0  0  0  0  0  0  0  0  0  0  0
   -1.7352   -1.0937    0.0000 C   0  0  0  0  0  0  0  0  0  0  0  0
   -3.1826   -1.4876    0.0000 N   0  0  0  0  0  0  0  0  0  0  0  0
   -4.2474   -0.4311    0.0000 C   0  0  0  0  0  0  0  0  0  0  0  0
   -5.6948   -0.8251    0.0000 C   0  0  0  0  0  0  0  0  0  0  0  0
   -6.0773   -2.2755    0.0000 O   0  0  0  0  0  0  0  0  0  0  0  0
   -5.0124   -3.3319    0.0000 C   0  0  0  0  0  0  0  0  0  0  0  0
   -3.5651   -2.9380    0.0000 C   0  0  0  0  0  0  0  0  0  0  0  0
  1  2  1  0
  2  3  2  0
  3  4  1  0
  4  5  2  0
  4  6  1  0
  6  7  2  0
  7  8  1  0
  8  9  2  0
  9 10  1  0
 10 11  2  0
 11 12  1  0
 12 13  2  0
  3 14  1  0
 14 15  1  0
 14 16  2  0
 16 17  1  0
 17 18  1  0
 17 19  2  0
 19 20  1  0
 20 21  1  0
 21 22  1  0
 22 23  1  0
 23 24  1  0
 24 25  1  0
 25 26  1  0
  7  1  1  0
 13  8  1  0
 26 21  1  0
 19  2  1  0
M  END
>  <IC50>  (46) 
447.9

>  <cmpdNO>  (46) 
49

$$$$

     RDKit          2D

 27 30  0  0  0  0  0  0  0  0999 V2000
    1.4176   -0.3187    0.0000 O   0  0  0  0  0  0  0  0  0  0  0  0
    0.4386    0.8178    0.0000 C   0  0  0  0  0  0  0  0  0  0  0  0
    0.9333    2.2339    0.0000 C   0  0  0  0  0  0  0  0  0  0  0  0
    2.4070    2.5135    0.0000 C   0  0  0  0  0  0  0  0  0  0  0  0
    2.9017    3.9296    0.0000 O   0  0  0  0  0  0  0  0  0  0  0  0
    3.3860    1.3770    0.0000 C   0  0  0  0  0  0  0  0  0  0  0  0
    2.8913   -0.0391    0.0000 C   0  0  0  0  0  0  0  0  0  0  0  0
    3.8703   -1.1755    0.0000 C   0  0  0  0  0  0  0  0  0  0  0  0
    3.3756   -2.5916    0.0000 C   0  0  0  0  0  0  0  0  0  0  0  0
    4.3546   -3.7281    0.0000 C   0  0  0  0  0  0  0  0  0  0  0  0
    5.8283   -3.4484    0.0000 C   0  0  0  0  0  0  0  0  0  0  0  0
    6.3230   -2.0324    0.0000 C   0  0  0  0  0  0  0  0  0  0  0  0
    5.3440   -0.8959    0.0000 C   0  0  0  0  0  0  0  0  0  0  0  0
   -0.0457    3.3703    0.0000 C   0  0  0  0  0  0  0  0  0  0  0  0
    0.4490    4.7864    0.0000 O   0  0  0  0  0  0  0  0  0  0  0  0
   -1.5194    3.0907    0.0000 C   0  0  0  0  0  0  0  0  0  0  0  0
   -2.0141    1.6746    0.0000 C   0  0  0  0  0  0  0  0  0  0  0  0
   -3.4878    1.3950    0.0000 O   0  0  0  0  0  0  0  0  0  0  0  0
   -1.0351    0.5382    0.0000 C   0  0  0  0  0  0  0  0  0  0  0  0
   -1.5298   -0.8779    0.0000 C   0  0  0  0  0  0  0  0  0  0  0  0
   -3.0035   -1.1575    0.0000 N   0  0  0  0  0  0  0  0  0  0  0  0
   -3.9825   -0.0211    0.0000 C   0  0  0  0  0  0  0  0  0  0  0  0
   -5.4563   -0.3007    0.0000 C   0  0  0  0  0  0  0  0  0  0  0  0
   -5.9509   -1.7168    0.0000 N   0  0  0  0  0  0  0  0  0  0  0  0
   -4.9719   -2.8532    0.0000 C   0  0  0  0  0  0  0  0  0  0  0  0
   -3.4982   -2.5736    0.0000 C   0  0  0  0  0  0  0  0  0  0  0  0
   -7.4247   -1.9964    0.0000 C   0  0  0  0  0  0  0  0  0  0  0  0
  1  2  1  0
  2  3  2  0
  3  4  1  0
  4  5  2  0
  4  6  1  0
  6  7  2  0
  7  8  1  0
  8  9  2  0
  9 10  1  0
 10 11  2  0
 11 12  1  0
 12 13  2  0
  3 14  1  0
 14 15  1  0
 14 16  2  0
 16 17  1  0
 17 18  1  0
 17 19  2  0
 19 20  1  0
 20 21  1  0
 21 22  1  0
 22 23  1  0
 23 24  1  0
 24 25  1  0
 25 26  1  0
 24 27  1  0
  7  1  1  0
 13  8  1  0
 26 21  1  0
 19  2  1  0
M  END
>  <IC50>  (47) 
431.12

>  <cmpdNO>  (47) 
50

$$$$

     RDKit          2D

 25 28  0  0  0  0  0  0  0  0999 V2000
    0.9573   -0.3236    0.0000 O   0  0  0  0  0  0  0  0  0  0  0  0
   -0.1820    0.6521    0.0000 C   0  0  0  0  0  0  0  0  0  0  0  0
    0.0932    2.1266    0.0000 C   0  0  0  0  0  0  0  0  0  0  0  0
    1.5079    2.6255    0.0000 C   0  0  0  0  0  0  0  0  0  0  0  0
    1.7831    4.1000    0.0000 O   0  0  0  0  0  0  0  0  0  0  0  0
    2.6472    1.6498    0.0000 C   0  0  0  0  0  0  0  0  0  0  0  0
    2.3719    0.1753    0.0000 C   0  0  0  0  0  0  0  0  0  0  0  0
    3.5113   -0.8004    0.0000 C   0  0  0  0  0  0  0  0  0  0  0  0
    3.2360   -2.2749    0.0000 C   0  0  0  0  0  0  0  0  0  0  0  0
    4.3753   -3.2505    0.0000 C   0  0  0  0  0  0  0  0  0  0  0  0
    5.7899   -2.7517    0.0000 C   0  0  0  0  0  0  0  0  0  0  0  0
    6.0652   -1.2771    0.0000 C   0  0  0  0  0  0  0  0  0  0  0  0
    4.9259   -0.3015    0.0000 C   0  0  0  0  0  0  0  0  0  0  0  0
   -1.0461    3.1023    0.0000 C   0  0  0  0  0  0  0  0  0  0  0  0
   -0.7708    4.5768    0.0000 O   0  0  0  0  0  0  0  0  0  0  0  0
   -2.4607    2.6034    0.0000 C   0  0  0  0  0  0  0  0  0  0  0  0
   -2.7360    1.1289    0.0000 C   0  0  0  0  0  0  0  0  0  0  0  0
   -4.1506    0.6300    0.0000 O   0  0  0  0  0  0  0  0  0  0  0  0
   -1.5966    0.1532    0.0000 C   0  0  0  0  0  0  0  0  0  0  0  0
   -1.8719   -1.3213    0.0000 C   0  0  0  0  0  0  0  0  0  0  0  0
   -3.2865   -1.8202    0.0000 N   0  0  0  0  0  0  0  0  0  0  0  0
   -3.7144   -3.2579    0.0000 C   0  0  0  0  0  0  0  0  0  0  0  0
   -5.2140   -3.2952    0.0000 C   0  0  0  0  0  0  0  0  0  0  0  0
   -5.7128   -1.8806    0.0000 C   0  0  0  0  0  0  0  0  0  0  0  0
   -4.5216   -0.9690    0.0000 C   0  0  0  0  0  0  0  0  0  0  0  0
  1  2  1  0
  2  3  2  0
  3  4  1  0
  4  5  2  0
  4  6  1  0
  6  7  2  0
  7  8  1  0
  8  9  2  0
  9 10  1  0
 10 11  2  0
 11 12  1  0
 12 13  2  0
  3 14  1  0
 14 15  1  0
 14 16  2  0
 16 17  1  0
 17 18  1  0
 17 19  2  0
 19 20  1  0
 20 21  1  0
 21 22  1  0
 22 23  1  0
 23 24  1  0
 24 25  1  0
  7  1  1  0
 13  8  1  0
 25 21  1  0
 19  2  1  0
M  END
>  <IC50>  (48) 
181.75

>  <cmpdNO>  (48) 
51

$$$$

     RDKit          2D

 28 31  0  0  0  0  0  0  0  0999 V2000
    1.5332   -0.3748    0.0000 O   0  0  0  0  0  0  0  0  0  0  0  0
    0.4148    0.6248    0.0000 C   0  0  0  0  0  0  0  0  0  0  0  0
    0.7213    2.0932    0.0000 C   0  0  0  0  0  0  0  0  0  0  0  0
   -0.3970    3.0928    0.0000 C   0  0  0  0  0  0  0  0  0  0  0  0
   -0.0905    4.5612    0.0000 O   0  0  0  0  0  0  0  0  0  0  0  0
   -1.8219    2.6241    0.0000 C   0  0  0  0  0  0  0  0  0  0  0  0
   -2.9403    3.6238    0.0000 O   0  0  0  0  0  0  0  0  0  0  0  0
   -2.1284    1.1558    0.0000 C   0  0  0  0  0  0  0  0  0  0  0  0
   -3.5533    0.6871    0.0000 O   0  0  0  0  0  0  0  0  0  0  0  0
   -1.0101    0.1561    0.0000 C   0  0  0  0  0  0  0  0  0  0  0  0
   -1.3166   -1.3122    0.0000 C   0  0  0  0  0  0  0  0  0  0  0  0
   -2.7415   -1.7809    0.0000 N   0  0  0  0  0  0  0  0  0  0  0  0
   -3.8599   -0.7813    0.0000 C   0  0  0  0  0  0  0  0  0  0  0  0
   -5.2848   -1.2500    0.0000 C   0  0  0  0  0  0  0  0  0  0  0  0
   -6.4031   -0.2503    0.0000 O   0  0  0  0  0  0  0  0  0  0  0  0
   -5.5913   -2.7183    0.0000 C   0  0  0  0  0  0  0  0  0  0  0  0
   -4.4729   -3.7180    0.0000 C   0  0  0  0  0  0  0  0  0  0  0  0
   -3.0480   -3.2492    0.0000 C   0  0  0  0  0  0  0  0  0  0  0  0
    2.1462    2.5619    0.0000 C   0  0  0  0  0  0  0  0  0  0  0  0
    2.4528    4.0302    0.0000 O   0  0  0  0  0  0  0  0  0  0  0  0
    3.2646    1.5623    0.0000 C   0  0  0  0  0  0  0  0  0  0  0  0
    2.9581    0.0939    0.0000 C   0  0  0  0  0  0  0  0  0  0  0  0
    4.0764   -0.9057    0.0000 C   0  0  0  0  0  0  0  0  0  0  0  0
    3.7699   -2.3741    0.0000 C   0  0  0  0  0  0  0  0  0  0  0  0
    4.8882   -3.3737    0.0000 C   0  0  0  0  0  0  0  0  0  0  0  0
    6.3131   -2.9050    0.0000 C   0  0  0  0  0  0  0  0  0  0  0  0
    6.6197   -1.4367    0.0000 C   0  0  0  0  0  0  0  0  0  0  0  0
    5.5013   -0.4370    0.0000 C   0  0  0  0  0  0  0  0  0  0  0  0
  1  2  1  0
  2  3  2  0
  3  4  1  0
  4  5  1  0
  4  6  2  0
  6  7  1  0
  6  8  1  0
  8  9  1  0
  8 10  2  0
 10 11  1  0
 11 12  1  0
 12 13  1  0
 13 14  1  0
 14 15  1  0
 14 16  1  0
 16 17  1  0
 17 18  1  0
  3 19  1  0
 19 20  2  0
 19 21  1  0
 21 22  2  0
 22 23  1  0
 23 24  2  0
 24 25  1  0
 25 26  2  0
 26 27  1  0
 27 28  2  0
 22  1  1  0
 28 23  1  0
 10  2  1  0
 18 12  1  0
M  END
>  <IC50>  (49) 
68.22

>  <cmpdNO>  (49) 
52

$$$$

     RDKit          2D

 29 32  0  0  0  0  0  0  0  0999 V2000
    1.7965   -0.4225    0.0000 O   0  0  0  0  0  0  0  0  0  0  0  0
    0.8097    0.7072    0.0000 C   0  0  0  0  0  0  0  0  0  0  0  0
    1.2947    2.1266    0.0000 C   0  0  0  0  0  0  0  0  0  0  0  0
    0.3080    3.2564    0.0000 C   0  0  0  0  0  0  0  0  0  0  0  0
    0.7930    4.6758    0.0000 O   0  0  0  0  0  0  0  0  0  0  0  0
   -1.1638    2.9667    0.0000 C   0  0  0  0  0  0  0  0  0  0  0  0
   -2.1506    4.0964    0.0000 O   0  0  0  0  0  0  0  0  0  0  0  0
   -1.6488    1.5473    0.0000 C   0  0  0  0  0  0  0  0  0  0  0  0
   -3.1206    1.2576    0.0000 O   0  0  0  0  0  0  0  0  0  0  0  0
   -0.6621    0.4175    0.0000 C   0  0  0  0  0  0  0  0  0  0  0  0
   -1.1471   -1.0019    0.0000 C   0  0  0  0  0  0  0  0  0  0  0  0
   -2.6188   -1.2916    0.0000 N   0  0  0  0  0  0  0  0  0  0  0  0
   -3.6056   -0.1618    0.0000 C   0  0  0  0  0  0  0  0  0  0  0  0
   -5.0774   -0.4515    0.0000 C   0  0  0  0  0  0  0  0  0  0  0  0
   -5.5624   -1.8709    0.0000 C   0  0  0  0  0  0  0  0  0  0  0  0
   -4.5756   -3.0007    0.0000 C   0  0  0  0  0  0  0  0  0  0  0  0
   -3.1038   -2.7110    0.0000 C   0  0  0  0  0  0  0  0  0  0  0  0
   -7.0341   -2.1606    0.0000 C   0  0  0  0  0  0  0  0  0  0  0  0
   -8.0209   -1.0309    0.0000 O   0  0  0  0  0  0  0  0  0  0  0  0
    2.7665    2.4163    0.0000 C   0  0  0  0  0  0  0  0  0  0  0  0
    3.2515    3.8357    0.0000 O   0  0  0  0  0  0  0  0  0  0  0  0
    3.7532    1.2866    0.0000 C   0  0  0  0  0  0  0  0  0  0  0  0
    3.2682   -0.1328    0.0000 C   0  0  0  0  0  0  0  0  0  0  0  0
    4.2550   -1.2626    0.0000 C   0  0  0  0  0  0  0  0  0  0  0  0
    3.7700   -2.6820    0.0000 C   0  0  0  0  0  0  0  0  0  0  0  0
    4.7567   -3.8118    0.0000 C   0  0  0  0  0  0  0  0  0  0  0  0
    6.2285   -3.5221    0.0000 C   0  0  0  0  0  0  0  0  0  0  0  0
    6.7135   -2.1027    0.0000 C   0  0  0  0  0  0  0  0  0  0  0  0
    5.7267   -0.9729    0.0000 C   0  0  0  0  0  0  0  0  0  0  0  0
  1  2  1  0
  2  3  2  0
  3  4  1  0
  4  5  1  0
  4  6  2  0
  6  7  1  0
  6  8  1  0
  8  9  1  0
  8 10  2  0
 10 11  1  0
 11 12  1  0
 12 13  1  0
 13 14  1  0
 14 15  1  0
 15 16  1  0
 16 17  1  0
 15 18  1  0
 18 19  1  0
  3 20  1  0
 20 21  2  0
 20 22  1  0
 22 23  2  0
 23 24  1  0
 24 25  2  0
 25 26  1  0
 26 27  2  0
 27 28  1  0
 28 29  2  0
 23  1  1  0
 29 24  1  0
 10  2  1  0
 17 12  1  0
M  END
>  <IC50>  (50) 
470.1

>  <cmpdNO>  (50) 
53

$$$$

     RDKit          2D

 29 32  0  0  0  0  0  0  0  0999 V2000
    1.4896   -0.2950    0.0000 O   0  0  0  0  0  0  0  0  0  0  0  0
    0.3975    0.7332    0.0000 C   0  0  0  0  0  0  0  0  0  0  0  0
    0.7419    2.1931    0.0000 C   0  0  0  0  0  0  0  0  0  0  0  0
   -0.3502    3.2214    0.0000 C   0  0  0  0  0  0  0  0  0  0  0  0
   -0.0058    4.6813    0.0000 O   0  0  0  0  0  0  0  0  0  0  0  0
   -1.7868    2.7897    0.0000 C   0  0  0  0  0  0  0  0  0  0  0  0
   -2.8789    3.8180    0.0000 O   0  0  0  0  0  0  0  0  0  0  0  0
   -2.1312    1.3298    0.0000 C   0  0  0  0  0  0  0  0  0  0  0  0
   -3.2090    1.1451    0.0000 O   0  0  0  0  0  0  0  0  0  0  0  0
   -1.0391    0.3015    0.0000 C   0  0  0  0  0  0  0  0  0  0  0  0
   -1.3835   -1.1584    0.0000 C   0  0  0  0  0  0  0  0  0  0  0  0
   -2.8201   -1.5900    0.0000 N   0  0  0  0  0  0  0  0  0  0  0  0
   -3.9122   -0.5618    0.0000 C   0  0  0  0  0  0  0  0  0  0  0  0
   -5.3487   -0.9935    0.0000 C   0  0  0  0  0  0  0  0  0  0  0  0
   -5.6931   -2.4534    0.0000 O   0  0  0  0  0  0  0  0  0  0  0  0
   -4.6010   -3.4816    0.0000 C   0  0  0  0  0  0  0  0  0  0  0  0
   -3.1645   -3.0500    0.0000 C   0  0  0  0  0  0  0  0  0  0  0  0
   -2.0724   -4.0782    0.0000 C   0  0  0  0  0  0  0  0  0  0  0  0
   -3.7927    0.5252    0.0000 C   0  0  0  0  0  0  0  0  0  0  0  0
    2.1784    2.6248    0.0000 C   0  0  0  0  0  0  0  0  0  0  0  0
    2.5229    4.0847    0.0000 O   0  0  0  0  0  0  0  0  0  0  0  0
    3.2706    1.5966    0.0000 C   0  0  0  0  0  0  0  0  0  0  0  0
    2.9261    0.1366    0.0000 C   0  0  0  0  0  0  0  0  0  0  0  0
    4.0182   -0.8916    0.0000 C   0  0  0  0  0  0  0  0  0  0  0  0
    3.6738   -2.3515    0.0000 C   0  0  0  0  0  0  0  0  0  0  0  0
    4.7659   -3.3798    0.0000 C   0  0  0  0  0  0  0  0  0  0  0  0
    6.2025   -2.9481    0.0000 C   0  0  0  0  0  0  0  0  0  0  0  0
    6.5469   -1.4882    0.0000 C   0  0  0  0  0  0  0  0  0  0  0  0
    5.4548   -0.4599    0.0000 C   0  0  0  0  0  0  0  0  0  0  0  0
  1  2  1  0
  2  3  2  0
  3  4  1  0
  4  5  1  0
  4  6  2  0
  6  7  1  0
  6  8  1  0
  8  9  1  0
  8 10  2  0
 10 11  1  0
 11 12  1  0
 12 13  1  0
 13 14  1  0
 14 15  1  0
 15 16  1  0
 16 17  1  0
 17 18  1  0
 13 19  1  0
  3 20  1  0
 20 21  2  0
 20 22  1  0
 22 23  2  0
 23 24  1  0
 24 25  2  0
 25 26  1  0
 26 27  2  0
 27 28  1  0
 28 29  2  0
 23  1  1  0
 29 24  1  0
 10  2  1  0
 17 12  1  0
M  END
>  <IC50>  (51) 
591.03

>  <cmpdNO>  (51) 
54

$$$$

     RDKit          2D

 28 31  0  0  0  0  0  0  0  0999 V2000
    1.3630   -0.2867    0.0000 O   0  0  0  0  0  0  0  0  0  0  0  0
    0.2855    0.7568    0.0000 C   0  0  0  0  0  0  0  0  0  0  0  0
    0.6506    2.2117    0.0000 C   0  0  0  0  0  0  0  0  0  0  0  0
   -0.4269    3.2553    0.0000 C   0  0  0  0  0  0  0  0  0  0  0  0
   -0.0619    4.7102    0.0000 O   0  0  0  0  0  0  0  0  0  0  0  0
   -1.8694    2.8440    0.0000 C   0  0  0  0  0  0  0  0  0  0  0  0
   -2.9469    3.8876    0.0000 O   0  0  0  0  0  0  0  0  0  0  0  0
   -2.2344    1.3891    0.0000 C   0  0  0  0  0  0  0  0  0  0  0  0
   -3.6769    0.9777    0.0000 O   0  0  0  0  0  0  0  0  0  0  0  0
   -1.1570    0.3455    0.0000 C   0  0  0  0  0  0  0  0  0  0  0  0
   -1.5220   -1.1094    0.0000 C   0  0  0  0  0  0  0  0  0  0  0  0
   -2.9645   -1.5207    0.0000 N   0  0  0  0  0  0  0  0  0  0  0  0
   -4.0419   -0.4772    0.0000 C   0  0  0  0  0  0  0  0  0  0  0  0
   -5.4844   -0.8885    0.0000 C   0  0  0  0  0  0  0  0  0  0  0  0
   -5.8495   -2.3434    0.0000 C   0  0  0  0  0  0  0  0  0  0  0  0
   -4.7720   -3.3870    0.0000 C   0  0  0  0  0  0  0  0  0  0  0  0
   -3.3295   -2.9757    0.0000 C   0  0  0  0  0  0  0  0  0  0  0  0
   -2.2520   -4.0192    0.0000 C   0  0  0  0  0  0  0  0  0  0  0  0
    2.0931    2.6231    0.0000 C   0  0  0  0  0  0  0  0  0  0  0  0
    2.4581    4.0780    0.0000 O   0  0  0  0  0  0  0  0  0  0  0  0
    3.1705    1.5795    0.0000 C   0  0  0  0  0  0  0  0  0  0  0  0
    2.8055    0.1246    0.0000 C   0  0  0  0  0  0  0  0  0  0  0  0
    3.8830   -0.9190    0.0000 C   0  0  0  0  0  0  0  0  0  0  0  0
    3.5180   -2.3739    0.0000 C   0  0  0  0  0  0  0  0  0  0  0  0
    4.5955   -3.4175    0.0000 C   0  0  0  0  0  0  0  0  0  0  0  0
    6.0380   -3.0061    0.0000 C   0  0  0  0  0  0  0  0  0  0  0  0
    6.4030   -1.5512    0.0000 C   0  0  0  0  0  0  0  0  0  0  0  0
    5.3255   -0.5076    0.0000 C   0  0  0  0  0  0  0  0  0  0  0  0
  1  2  1  0
  2  3  2  0
  3  4  1  0
  4  5  1  0
  4  6  2  0
  6  7  1  0
  6  8  1  0
  8  9  1  0
  8 10  2  0
 10 11  1  0
 11 12  1  0
 12 13  1  0
 13 14  1  0
 14 15  1  0
 15 16  1  0
 16 17  1  0
 17 18  1  0
  3 19  1  0
 19 20  2  0
 19 21  1  0
 21 22  2  0
 22 23  1  0
 23 24  2  0
 24 25  1  0
 25 26  2  0
 26 27  1  0
 27 28  2  0
 22  1  1  0
 28 23  1  0
 10  2  1  0
 17 12  1  0
M  END
>  <IC50>  (52) 
99.66

>  <cmpdNO>  (52) 
55

$$$$

     RDKit          2D

 26 29  0  0  0  0  0  0  0  0999 V2000
    1.1260   -0.3817    0.0000 O   0  0  0  0  0  0  0  0  0  0  0  0
   -0.0803    0.5100    0.0000 C   0  0  0  0  0  0  0  0  0  0  0  0
    0.0888    2.0004    0.0000 C   0  0  0  0  0  0  0  0  0  0  0  0
   -1.1174    2.8921    0.0000 C   0  0  0  0  0  0  0  0  0  0  0  0
   -0.9483    4.3825    0.0000 O   0  0  0  0  0  0  0  0  0  0  0  0
   -2.4927    2.2933    0.0000 C   0  0  0  0  0  0  0  0  0  0  0  0
   -3.6989    3.1849    0.0000 O   0  0  0  0  0  0  0  0  0  0  0  0
   -2.6618    0.8028    0.0000 C   0  0  0  0  0  0  0  0  0  0  0  0
   -4.0371    0.2041    0.0000 O   0  0  0  0  0  0  0  0  0  0  0  0
   -1.4556   -0.0888    0.0000 C   0  0  0  0  0  0  0  0  0  0  0  0
   -1.6246   -1.5792    0.0000 C   0  0  0  0  0  0  0  0  0  0  0  0
   -2.9999   -2.1780    0.0000 N   0  0  0  0  0  0  0  0  0  0  0  0
   -3.3239   -3.6426    0.0000 C   0  0  0  0  0  0  0  0  0  0  0  0
   -4.8169   -3.7871    0.0000 C   0  0  0  0  0  0  0  0  0  0  0  0
   -5.4157   -2.4118    0.0000 C   0  0  0  0  0  0  0  0  0  0  0  0
   -4.2928   -1.4174    0.0000 C   0  0  0  0  0  0  0  0  0  0  0  0
    1.4641    2.5992    0.0000 C   0  0  0  0  0  0  0  0  0  0  0  0
    1.6332    4.0897    0.0000 O   0  0  0  0  0  0  0  0  0  0  0  0
    2.6703    1.7076    0.0000 C   0  0  0  0  0  0  0  0  0  0  0  0
    2.5013    0.2171    0.0000 C   0  0  0  0  0  0  0  0  0  0  0  0
    3.7075   -0.6745    0.0000 C   0  0  0  0  0  0  0  0  0  0  0  0
    3.5384   -2.1650    0.0000 C   0  0  0  0  0  0  0  0  0  0  0  0
    4.7446   -3.0566    0.0000 C   0  0  0  0  0  0  0  0  0  0  0  0
    6.1199   -2.4578    0.0000 C   0  0  0  0  0  0  0  0  0  0  0  0
    6.2890   -0.9674    0.0000 C   0  0  0  0  0  0  0  0  0  0  0  0
    5.0828   -0.0757    0.0000 C   0  0  0  0  0  0  0  0  0  0  0  0
  1  2  1  0
  2  3  2  0
  3  4  1  0
  4  5  1  0
  4  6  2  0
  6  7  1  0
  6  8  1  0
  8  9  1  0
  8 10  2  0
 10 11  1  0
 11 12  1  0
 12 13  1  0
 13 14  1  0
 14 15  1  0
 15 16  1  0
  3 17  1  0
 17 18  2  0
 17 19  1  0
 19 20  2  0
 20 21  1  0
 21 22  2  0
 22 23  1  0
 23 24  2  0
 24 25  1  0
 25 26  2  0
 20  1  1  0
 26 21  1  0
 10  2  1  0
 16 12  1  0
M  END
>  <IC50>  (53) 
107.11

>  <cmpdNO>  (53) 
56

$$$$

     RDKit          2D

 28 31  0  0  0  0  0  0  0  0999 V2000
    1.5256   -0.4047    0.0000 O   0  0  0  0  0  0  0  0  0  0  0  0
    0.4988    0.6888    0.0000 C   0  0  0  0  0  0  0  0  0  0  0  0
    0.9323    2.1248    0.0000 C   0  0  0  0  0  0  0  0  0  0  0  0
   -0.0945    3.2183    0.0000 C   0  0  0  0  0  0  0  0  0  0  0  0
    0.3391    4.6542    0.0000 O   0  0  0  0  0  0  0  0  0  0  0  0
   -1.5549    2.8757    0.0000 C   0  0  0  0  0  0  0  0  0  0  0  0
   -2.5817    3.9692    0.0000 O   0  0  0  0  0  0  0  0  0  0  0  0
   -1.9884    1.4398    0.0000 C   0  0  0  0  0  0  0  0  0  0  0  0
   -3.4488    1.0973    0.0000 O   0  0  0  0  0  0  0  0  0  0  0  0
   -0.9616    0.3463    0.0000 C   0  0  0  0  0  0  0  0  0  0  0  0
   -1.3952   -1.0897    0.0000 C   0  0  0  0  0  0  0  0  0  0  0  0
   -2.8556   -1.4322    0.0000 N   0  0  0  0  0  0  0  0  0  0  0  0
   -3.8824   -0.3387    0.0000 C   0  0  0  0  0  0  0  0  0  0  0  0
   -5.3427   -0.6812    0.0000 C   0  0  0  0  0  0  0  0  0  0  0  0
   -5.7763   -2.1172    0.0000 C   0  0  0  0  0  0  0  0  0  0  0  0
   -7.2367   -2.4597    0.0000 O   0  0  0  0  0  0  0  0  0  0  0  0
   -4.7495   -3.2106    0.0000 C   0  0  0  0  0  0  0  0  0  0  0  0
   -3.2891   -2.8681    0.0000 C   0  0  0  0  0  0  0  0  0  0  0  0
    2.3927    2.4673    0.0000 C   0  0  0  0  0  0  0  0  0  0  0  0
    2.8263    3.9033    0.0000 O   0  0  0  0  0  0  0  0  0  0  0  0
    3.4195    1.3738    0.0000 C   0  0  0  0  0  0  0  0  0  0  0  0
    2.9859   -0.0622    0.0000 C   0  0  0  0  0  0  0  0  0  0  0  0
    4.0127   -1.1556    0.0000 C   0  0  0  0  0  0  0  0  0  0  0  0
    3.5792   -2.5916    0.0000 C   0  0  0  0  0  0  0  0  0  0  0  0
    4.6060   -3.6851    0.0000 C   0  0  0  0  0  0  0  0  0  0  0  0
    6.0663   -3.3426    0.0000 C   0  0  0  0  0  0  0  0  0  0  0  0
    6.4999   -1.9066    0.0000 C   0  0  0  0  0  0  0  0  0  0  0  0
    5.4731   -0.8131    0.0000 C   0  0  0  0  0  0  0  0  0  0  0  0
  1  2  1  0
  2  3  2  0
  3  4  1  0
  4  5  1  0
  4  6  2  0
  6  7  1  0
  6  8  1  0
  8  9  1  0
  8 10  2  0
 10 11  1  0
 11 12  1  0
 12 13  1  0
 13 14  1  0
 14 15  1  0
 15 16  1  0
 15 17  1  0
 17 18  1  0
  3 19  1  0
 19 20  2  0
 19 21  1  0
 21 22  2  0
 22 23  1  0
 23 24  2  0
 24 25  1  0
 25 26  2  0
 26 27  1  0
 27 28  2  0
 22  1  1  0
 28 23  1  0
 10  2  1  0
 18 12  1  0
M  END
>  <IC50>  (54) 
91.54

>  <cmpdNO>  (54) 
57

$$$$

     RDKit          2D

 30 33  0  0  0  0  0  0  0  0999 V2000
    2.1000   -0.4442    0.0000 O   0  0  0  0  0  0  0  0  0  0  0  0
    1.1490    0.7158    0.0000 C   0  0  0  0  0  0  0  0  0  0  0  0
    1.6780    2.1194    0.0000 C   0  0  0  0  0  0  0  0  0  0  0  0
    0.7269    3.2793    0.0000 C   0  0  0  0  0  0  0  0  0  0  0  0
    1.2559    4.6830    0.0000 O   0  0  0  0  0  0  0  0  0  0  0  0
   -0.7531    3.0357    0.0000 C   0  0  0  0  0  0  0  0  0  0  0  0
   -1.7042    4.1956    0.0000 O   0  0  0  0  0  0  0  0  0  0  0  0
   -1.2822    1.6320    0.0000 C   0  0  0  0  0  0  0  0  0  0  0  0
   -2.7622    1.3884    0.0000 O   0  0  0  0  0  0  0  0  0  0  0  0
   -0.3311    0.4721    0.0000 C   0  0  0  0  0  0  0  0  0  0  0  0
   -0.8601   -0.9315    0.0000 C   0  0  0  0  0  0  0  0  0  0  0  0
   -2.3402   -1.1752    0.0000 N   0  0  0  0  0  0  0  0  0  0  0  0
   -3.2912   -0.0152    0.0000 C   0  0  0  0  0  0  0  0  0  0  0  0
   -4.7713   -0.2589    0.0000 C   0  0  0  0  0  0  0  0  0  0  0  0
   -5.3003   -1.6625    0.0000 N   0  0  0  0  0  0  0  0  0  0  0  0
   -4.3493   -2.8225    0.0000 C   0  0  0  0  0  0  0  0  0  0  0  0
   -2.8692   -2.5788    0.0000 C   0  0  0  0  0  0  0  0  0  0  0  0
   -6.7804   -1.9062    0.0000 C   0  0  0  0  0  0  0  0  0  0  0  0
   -7.7315   -0.7463    0.0000 C   0  0  0  0  0  0  0  0  0  0  0  0
   -9.2115   -0.9899    0.0000 O   0  0  0  0  0  0  0  0  0  0  0  0
    3.1581    2.3631    0.0000 C   0  0  0  0  0  0  0  0  0  0  0  0
    3.6871    3.7667    0.0000 O   0  0  0  0  0  0  0  0  0  0  0  0
    4.1091    1.2031    0.0000 C   0  0  0  0  0  0  0  0  0  0  0  0
    3.5801   -0.2005    0.0000 C   0  0  0  0  0  0  0  0  0  0  0  0
    4.5312   -1.3604    0.0000 C   0  0  0  0  0  0  0  0  0  0  0  0
    4.0022   -2.7641    0.0000 C   0  0  0  0  0  0  0  0  0  0  0  0
    4.9532   -3.9240    0.0000 C   0  0  0  0  0  0  0  0  0  0  0  0
    6.4333   -3.6803    0.0000 C   0  0  0  0  0  0  0  0  0  0  0  0
    6.9623   -2.2767    0.0000 C   0  0  0  0  0  0  0  0  0  0  0  0
    6.0113   -1.1168    0.0000 C   0  0  0  0  0  0  0  0  0  0  0  0
  1  2  1  0
  2  3  2  0
  3  4  1  0
  4  5  1  0
  4  6  2  0
  6  7  1  0
  6  8  1  0
  8  9  1  0
  8 10  2  0
 10 11  1  0
 11 12  1  0
 12 13  1  0
 13 14  1  0
 14 15  1  0
 15 16  1  0
 16 17  1  0
 15 18  1  0
 18 19  1  0
 19 20  1  0
  3 21  1  0
 21 22  2  0
 21 23  1  0
 23 24  2  0
 24 25  1  0
 25 26  2  0
 26 27  1  0
 27 28  2  0
 28 29  1  0
 29 30  2  0
 24  1  1  0
 30 25  1  0
 10  2  1  0
 17 12  1  0
M  END
>  <IC50>  (55) 
276.43

>  <cmpdNO>  (55) 
58

$$$$

     RDKit          2D

 28 31  0  0  0  0  0  0  0  0999 V2000
    1.5256   -0.4047    0.0000 O   0  0  0  0  0  0  0  0  0  0  0  0
    0.4988    0.6888    0.0000 C   0  0  0  0  0  0  0  0  0  0  0  0
    0.9323    2.1248    0.0000 C   0  0  0  0  0  0  0  0  0  0  0  0
   -0.0945    3.2183    0.0000 C   0  0  0  0  0  0  0  0  0  0  0  0
    0.3391    4.6542    0.0000 O   0  0  0  0  0  0  0  0  0  0  0  0
   -1.5549    2.8757    0.0000 C   0  0  0  0  0  0  0  0  0  0  0  0
   -2.5817    3.9692    0.0000 O   0  0  0  0  0  0  0  0  0  0  0  0
   -1.9884    1.4398    0.0000 C   0  0  0  0  0  0  0  0  0  0  0  0
   -3.4488    1.0973    0.0000 O   0  0  0  0  0  0  0  0  0  0  0  0
   -0.9616    0.3463    0.0000 C   0  0  0  0  0  0  0  0  0  0  0  0
   -1.3952   -1.0897    0.0000 C   0  0  0  0  0  0  0  0  0  0  0  0
   -2.8556   -1.4322    0.0000 N   0  0  0  0  0  0  0  0  0  0  0  0
   -3.8824   -0.3387    0.0000 C   0  0  0  0  0  0  0  0  0  0  0  0
   -5.3427   -0.6812    0.0000 C   0  0  0  0  0  0  0  0  0  0  0  0
   -5.7763   -2.1172    0.0000 N   0  0  0  0  0  0  0  0  0  0  0  0
   -4.7495   -3.2106    0.0000 C   0  0  0  0  0  0  0  0  0  0  0  0
   -3.2891   -2.8681    0.0000 C   0  0  0  0  0  0  0  0  0  0  0  0
   -7.2367   -2.4597    0.0000 C   0  0  0  0  0  0  0  0  0  0  0  0
    2.3927    2.4673    0.0000 C   0  0  0  0  0  0  0  0  0  0  0  0
    2.8263    3.9033    0.0000 O   0  0  0  0  0  0  0  0  0  0  0  0
    3.4195    1.3738    0.0000 C   0  0  0  0  0  0  0  0  0  0  0  0
    2.9859   -0.0622    0.0000 C   0  0  0  0  0  0  0  0  0  0  0  0
    4.0127   -1.1556    0.0000 C   0  0  0  0  0  0  0  0  0  0  0  0
    3.5792   -2.5916    0.0000 C   0  0  0  0  0  0  0  0  0  0  0  0
    4.6060   -3.6851    0.0000 C   0  0  0  0  0  0  0  0  0  0  0  0
    6.0663   -3.3426    0.0000 C   0  0  0  0  0  0  0  0  0  0  0  0
    6.4999   -1.9066    0.0000 C   0  0  0  0  0  0  0  0  0  0  0  0
    5.4731   -0.8131    0.0000 C   0  0  0  0  0  0  0  0  0  0  0  0
  1  2  1  0
  2  3  2  0
  3  4  1  0
  4  5  1  0
  4  6  2  0
  6  7  1  0
  6  8  1  0
  8  9  1  0
  8 10  2  0
 10 11  1  0
 11 12  1  0
 12 13  1  0
 13 14  1  0
 14 15  1  0
 15 16  1  0
 16 17  1  0
 15 18  1  0
  3 19  1  0
 19 20  2  0
 19 21  1  0
 21 22  2  0
 22 23  1  0
 23 24  2  0
 24 25  1  0
 25 26  2  0
 26 27  1  0
 27 28  2  0
 22  1  1  0
 28 23  1  0
 10  2  1  0
 17 12  1  0
M  END
>  <IC50>  (56) 
301.71

>  <cmpdNO>  (56) 
59

$$$$

     RDKit          2D

 27 30  0  0  0  0  0  0  0  0999 V2000
    1.2993   -0.3729    0.0000 O   0  0  0  0  0  0  0  0  0  0  0  0
    0.1724    0.6171    0.0000 C   0  0  0  0  0  0  0  0  0  0  0  0
    0.4663    2.0880    0.0000 C   0  0  0  0  0  0  0  0  0  0  0  0
   -0.6606    3.0780    0.0000 C   0  0  0  0  0  0  0  0  0  0  0  0
   -0.3667    4.5489    0.0000 O   0  0  0  0  0  0  0  0  0  0  0  0
   -2.0814    2.5971    0.0000 C   0  0  0  0  0  0  0  0  0  0  0  0
   -3.2083    3.5871    0.0000 O   0  0  0  0  0  0  0  0  0  0  0  0
   -2.3754    1.1261    0.0000 C   0  0  0  0  0  0  0  0  0  0  0  0
   -3.7962    0.6452    0.0000 O   0  0  0  0  0  0  0  0  0  0  0  0
   -1.2484    0.1361    0.0000 C   0  0  0  0  0  0  0  0  0  0  0  0
   -1.5424   -1.3348    0.0000 C   0  0  0  0  0  0  0  0  0  0  0  0
   -2.9632   -1.8157    0.0000 N   0  0  0  0  0  0  0  0  0  0  0  0
   -4.0901   -0.8257    0.0000 C   0  0  0  0  0  0  0  0  0  0  0  0
   -5.5109   -1.3066    0.0000 C   0  0  0  0  0  0  0  0  0  0  0  0
   -5.8048   -2.7776    0.0000 C   0  0  0  0  0  0  0  0  0  0  0  0
   -4.6779   -3.7676    0.0000 C   0  0  0  0  0  0  0  0  0  0  0  0
   -3.2571   -3.2866    0.0000 C   0  0  0  0  0  0  0  0  0  0  0  0
    1.8871    2.5689    0.0000 C   0  0  0  0  0  0  0  0  0  0  0  0
    2.1810    4.0399    0.0000 O   0  0  0  0  0  0  0  0  0  0  0  0
    3.0140    1.5789    0.0000 C   0  0  0  0  0  0  0  0  0  0  0  0
    2.7201    0.1080    0.0000 C   0  0  0  0  0  0  0  0  0  0  0  0
    3.8470   -0.8820    0.0000 C   0  0  0  0  0  0  0  0  0  0  0  0
    3.5531   -2.3529    0.0000 C   0  0  0  0  0  0  0  0  0  0  0  0
    4.6800   -3.3429    0.0000 C   0  0  0  0  0  0  0  0  0  0  0  0
    6.1008   -2.8620    0.0000 C   0  0  0  0  0  0  0  0  0  0  0  0
    6.3947   -1.3910    0.0000 C   0  0  0  0  0  0  0  0  0  0  0  0
    5.2678   -0.4010    0.0000 C   0  0  0  0  0  0  0  0  0  0  0  0
  1  2  1  0
  2  3  2  0
  3  4  1  0
  4  5  1  0
  4  6  2  0
  6  7  1  0
  6  8  1  0
  8  9  1  0
  8 10  2  0
 10 11  1  0
 11 12  1  0
 12 13  1  0
 13 14  1  0
 14 15  1  0
 15 16  1  0
 16 17  1  0
  3 18  1  0
 18 19  2  0
 18 20  1  0
 20 21  2  0
 21 22  1  0
 22 23  2  0
 23 24  1  0
 24 25  2  0
 25 26  1  0
 26 27  2  0
 21  1  1  0
 27 22  1  0
 10  2  1  0
 17 12  1  0
M  END
>  <IC50>  (57) 
103.87

>  <cmpdNO>  (57) 
60

$$$$

     RDKit          2D

 30 31  0  0  0  0  0  0  0  0999 V2000
    1.5629   -0.3315    0.0000 O   0  0  0  0  0  0  0  0  0  0  0  0
    0.6946    0.8917    0.0000 C   0  0  0  0  0  0  0  0  0  0  0  0
   -0.7988    0.7512    0.0000 C   0  0  0  0  0  0  0  0  0  0  0  0
   -1.4239   -0.6123    0.0000 C   0  0  0  0  0  0  0  0  0  0  0  0
   -2.9173   -0.7527    0.0000 C   0  0  0  0  0  0  0  0  0  0  0  0
   -3.5424   -2.1163    0.0000 C   0  0  0  0  0  0  0  0  0  0  0  0
   -5.0358   -2.2567    0.0000 C   0  0  0  0  0  0  0  0  0  0  0  0
   -5.9042   -1.0336    0.0000 C   0  0  0  0  0  0  0  0  0  0  0  0
   -7.3976   -1.1740    0.0000 C   0  0  0  0  0  0  0  0  0  0  0  0
   -8.0227   -2.5376    0.0000 O   0  0  0  0  0  0  0  0  0  0  0  0
   -8.2659    0.0491    0.0000 C   0  0  0  0  0  0  0  0  0  0  0  0
   -9.7593   -0.0913    0.0000 C   0  0  0  0  0  0  0  0  0  0  0  0
   -7.6408    1.4126    0.0000 C   0  0  0  0  0  0  0  0  0  0  0  0
   -2.6741   -3.3394    0.0000 C   0  0  0  0  0  0  0  0  0  0  0  0
   -1.6672    1.9744    0.0000 C   0  0  0  0  0  0  0  0  0  0  0  0
   -3.1606    1.8339    0.0000 O   0  0  0  0  0  0  0  0  0  0  0  0
   -1.0421    3.3379    0.0000 C   0  0  0  0  0  0  0  0  0  0  0  0
    0.4513    3.4783    0.0000 C   0  0  0  0  0  0  0  0  0  0  0  0
    1.3197    2.2552    0.0000 C   0  0  0  0  0  0  0  0  0  0  0  0
    2.8131    2.3956    0.0000 C   0  0  0  0  0  0  0  0  0  0  0  0
    3.4382    3.7592    0.0000 O   0  0  0  0  0  0  0  0  0  0  0  0
    3.6814    1.1725    0.0000 C   0  0  0  0  0  0  0  0  0  0  0  0
    5.1748    1.3129    0.0000 C   0  0  0  0  0  0  0  0  0  0  0  0
    6.0431    0.0898    0.0000 C   0  0  0  0  0  0  0  0  0  0  0  0
    5.4180   -1.2737    0.0000 C   0  0  0  0  0  0  0  0  0  0  0  0
    6.2864   -2.4968    0.0000 C   0  0  0  0  0  0  0  0  0  0  0  0
    7.7798   -2.3564    0.0000 C   0  0  0  0  0  0  0  0  0  0  0  0
    8.6481   -3.5795    0.0000 O   0  0  0  0  0  0  0  0  0  0  0  0
    8.4049   -0.9929    0.0000 C   0  0  0  0  0  0  0  0  0  0  0  0
    7.5365    0.2303    0.0000 C   0  0  0  0  0  0  0  0  0  0  0  0
  1  2  1  0
  2  3  2  0
  3  4  1  0
  4  5  1  0
  5  6  2  0
  6  7  1  0
  7  8  1  0
  8  9  1  0
  9 10  1  0
  9 11  1  0
 11 12  1  0
 11 13  2  0
  6 14  1  0
  3 15  1  0
 15 16  1  0
 15 17  2  0
 17 18  1  0
 18 19  2  0
 19 20  1  0
 20 21  2  0
 20 22  1  0
 22 23  2  0
 23 24  1  0
 24 25  2  0
 25 26  1  0
 26 27  2  0
 27 28  1  0
 27 29  1  0
 29 30  2  0
 19  2  1  0
 30 24  1  0
M  END
>  <IC50>  (58) 
22.5

>  <cmpdNO>  (58) 
61

$$$$

     RDKit          2D

 31 32  0  0  0  0  0  0  0  0999 V2000
   -3.0572    1.6880    0.0000 O   0  0  0  0  0  0  0  0  0  0  0  0
   -3.9445    2.8974    0.0000 C   0  0  0  0  0  0  0  0  0  0  0  0
   -1.5662    1.8516    0.0000 C   0  0  0  0  0  0  0  0  0  0  0  0
   -0.9624    3.2247    0.0000 C   0  0  0  0  0  0  0  0  0  0  0  0
    0.5287    3.3884    0.0000 C   0  0  0  0  0  0  0  0  0  0  0  0
    1.4159    2.1789    0.0000 C   0  0  0  0  0  0  0  0  0  0  0  0
    2.9070    2.3425    0.0000 C   0  0  0  0  0  0  0  0  0  0  0  0
    3.5108    3.7156    0.0000 O   0  0  0  0  0  0  0  0  0  0  0  0
    3.7942    1.1331    0.0000 C   0  0  0  0  0  0  0  0  0  0  0  0
    5.2852    1.2967    0.0000 C   0  0  0  0  0  0  0  0  0  0  0  0
    6.1725    0.0873    0.0000 C   0  0  0  0  0  0  0  0  0  0  0  0
    5.5687   -1.2859    0.0000 C   0  0  0  0  0  0  0  0  0  0  0  0
    6.4559   -2.4953    0.0000 C   0  0  0  0  0  0  0  0  0  0  0  0
    7.9470   -2.3317    0.0000 C   0  0  0  0  0  0  0  0  0  0  0  0
    8.8342   -3.5411    0.0000 O   0  0  0  0  0  0  0  0  0  0  0  0
    8.5508   -0.9586    0.0000 C   0  0  0  0  0  0  0  0  0  0  0  0
    7.6635    0.2509    0.0000 C   0  0  0  0  0  0  0  0  0  0  0  0
    0.8121    0.8058    0.0000 C   0  0  0  0  0  0  0  0  0  0  0  0
    1.6993   -0.4037    0.0000 O   0  0  0  0  0  0  0  0  0  0  0  0
   -0.6789    0.6421    0.0000 C   0  0  0  0  0  0  0  0  0  0  0  0
   -1.2827   -0.7310    0.0000 C   0  0  0  0  0  0  0  0  0  0  0  0
   -2.7738   -0.8946    0.0000 C   0  0  0  0  0  0  0  0  0  0  0  0
   -3.3776   -2.2677    0.0000 C   0  0  0  0  0  0  0  0  0  0  0  0
   -4.8686   -2.4314    0.0000 C   0  0  0  0  0  0  0  0  0  0  0  0
   -5.7559   -1.2219    0.0000 C   0  0  0  0  0  0  0  0  0  0  0  0
   -7.2469   -1.3855    0.0000 C   0  0  0  0  0  0  0  0  0  0  0  0
   -7.8507   -2.7587    0.0000 O   0  0  0  0  0  0  0  0  0  0  0  0
   -8.1342   -0.1761    0.0000 C   0  0  0  0  0  0  0  0  0  0  0  0
   -9.6252   -0.3397    0.0000 C   0  0  0  0  0  0  0  0  0  0  0  0
   -7.5304    1.1970    0.0000 C   0  0  0  0  0  0  0  0  0  0  0  0
   -2.4904   -3.4772    0.0000 C   0  0  0  0  0  0  0  0  0  0  0  0
  1  2  1  0
  1  3  1  0
  3  4  2  0
  4  5  1  0
  5  6  2  0
  6  7  1  0
  7  8  2  0
  7  9  1  0
  9 10  2  0
 10 11  1  0
 11 12  2  0
 12 13  1  0
 13 14  2  0
 14 15  1  0
 14 16  1  0
 16 17  2  0
  6 18  1  0
 18 19  1  0
 18 20  2  0
 20 21  1  0
 21 22  1  0
 22 23  2  0
 23 24  1  0
 24 25  1  0
 25 26  1  0
 26 27  1  0
 26 28  1  0
 28 29  1  0
 28 30  2  0
 23 31  1  0
 20  3  1  0
 17 11  1  0
M  END
>  <IC50>  (59) 
24.2

>  <cmpdNO>  (59) 
62

$$$$

     RDKit          2D

 30 31  0  0  0  0  0  0  0  0999 V2000
   -3.3675    1.4908    0.0000 O   0  0  0  0  0  0  0  0  0  0  0  0
   -4.2923    2.6718    0.0000 C   0  0  0  0  0  0  0  0  0  0  0  0
   -1.8823    1.7013    0.0000 C   0  0  0  0  0  0  0  0  0  0  0  0
   -1.3220    3.0927    0.0000 C   0  0  0  0  0  0  0  0  0  0  0  0
    0.1632    3.3032    0.0000 C   0  0  0  0  0  0  0  0  0  0  0  0
    1.0880    2.1222    0.0000 C   0  0  0  0  0  0  0  0  0  0  0  0
    2.5732    2.3327    0.0000 C   0  0  0  0  0  0  0  0  0  0  0  0
    3.1335    3.7241    0.0000 O   0  0  0  0  0  0  0  0  0  0  0  0
    3.4980    1.1517    0.0000 C   0  0  0  0  0  0  0  0  0  0  0  0
    4.9832    1.3622    0.0000 C   0  0  0  0  0  0  0  0  0  0  0  0
    5.9080    0.1812    0.0000 C   0  0  0  0  0  0  0  0  0  0  0  0
    5.3477   -1.2102    0.0000 C   0  0  0  0  0  0  0  0  0  0  0  0
    6.2725   -2.3912    0.0000 C   0  0  0  0  0  0  0  0  0  0  0  0
    7.7577   -2.1807    0.0000 C   0  0  0  0  0  0  0  0  0  0  0  0
    8.6826   -3.3616    0.0000 O   0  0  0  0  0  0  0  0  0  0  0  0
    8.3180   -0.7893    0.0000 C   0  0  0  0  0  0  0  0  0  0  0  0
    7.3932    0.3917    0.0000 C   0  0  0  0  0  0  0  0  0  0  0  0
    0.5277    0.7308    0.0000 C   0  0  0  0  0  0  0  0  0  0  0  0
    1.4525   -0.4502    0.0000 O   0  0  0  0  0  0  0  0  0  0  0  0
   -0.9575    0.5203    0.0000 C   0  0  0  0  0  0  0  0  0  0  0  0
   -1.5178   -0.8711    0.0000 C   0  0  0  0  0  0  0  0  0  0  0  0
   -3.0030   -1.0816    0.0000 C   0  0  0  0  0  0  0  0  0  0  0  0
   -3.5633   -2.4730    0.0000 C   0  0  0  0  0  0  0  0  0  0  0  0
   -5.0484   -2.6834    0.0000 C   0  0  0  0  0  0  0  0  0  0  0  0
   -5.9733   -1.5025    0.0000 C   0  0  0  0  0  0  0  0  0  0  0  0
   -7.4584   -1.7129    0.0000 C   0  0  0  0  0  0  0  0  0  0  0  0
   -8.3833   -0.5320    0.0000 C   0  0  0  0  0  0  0  0  0  0  0  0
   -9.8684   -0.7425    0.0000 C   0  0  0  0  0  0  0  0  0  0  0  0
   -7.8230    0.8594    0.0000 C   0  0  0  0  0  0  0  0  0  0  0  0
   -2.6384   -3.6539    0.0000 C   0  0  0  0  0  0  0  0  0  0  0  0
  1  2  1  0
  1  3  1  0
  3  4  2  0
  4  5  1  0
  5  6  2  0
  6  7  1  0
  7  8  2  0
  7  9  1  0
  9 10  2  0
 10 11  1  0
 11 12  2  0
 12 13  1  0
 13 14  2  0
 14 15  1  0
 14 16  1  0
 16 17  2  0
  6 18  1  0
 18 19  1  0
 18 20  2  0
 20 21  1  0
 21 22  1  0
 22 23  2  0
 23 24  1  0
 24 25  1  0
 25 26  1  0
 26 27  2  0
 27 28  1  0
 27 29  1  0
 23 30  1  0
 20  3  1  0
 17 11  1  0
M  END
>  <IC50>  (60) 
85.9

>  <cmpdNO>  (60) 
63

$$$$

     RDKit          2D

 25 26  0  0  0  0  0  0  0  0999 V2000
   -5.0535    0.8674    0.0000 O   0  0  0  0  0  0  0  0  0  0  0  0
   -6.0868    1.9548    0.0000 C   0  0  0  0  0  0  0  0  0  0  0  0
   -3.5952    1.2186    0.0000 C   0  0  0  0  0  0  0  0  0  0  0  0
   -3.1702    2.6572    0.0000 C   0  0  0  0  0  0  0  0  0  0  0  0
   -1.7119    3.0083    0.0000 C   0  0  0  0  0  0  0  0  0  0  0  0
   -0.6786    1.9210    0.0000 C   0  0  0  0  0  0  0  0  0  0  0  0
    0.7797    2.2722    0.0000 C   0  0  0  0  0  0  0  0  0  0  0  0
    1.2047    3.7107    0.0000 O   0  0  0  0  0  0  0  0  0  0  0  0
    1.8130    1.1849    0.0000 C   0  0  0  0  0  0  0  0  0  0  0  0
    3.2713    1.5360    0.0000 C   0  0  0  0  0  0  0  0  0  0  0  0
    4.3046    0.4487    0.0000 C   0  0  0  0  0  0  0  0  0  0  0  0
    3.8796   -0.9898    0.0000 C   0  0  0  0  0  0  0  0  0  0  0  0
    4.9129   -2.0772    0.0000 C   0  0  0  0  0  0  0  0  0  0  0  0
    6.3712   -1.7260    0.0000 C   0  0  0  0  0  0  0  0  0  0  0  0
    7.4045   -2.8133    0.0000 O   0  0  0  0  0  0  0  0  0  0  0  0
    6.7962   -0.2874    0.0000 C   0  0  0  0  0  0  0  0  0  0  0  0
    5.7629    0.7999    0.0000 C   0  0  0  0  0  0  0  0  0  0  0  0
   -1.1036    0.4825    0.0000 C   0  0  0  0  0  0  0  0  0  0  0  0
   -0.0703   -0.6049    0.0000 O   0  0  0  0  0  0  0  0  0  0  0  0
   -2.5619    0.1313    0.0000 C   0  0  0  0  0  0  0  0  0  0  0  0
   -2.9870   -1.3072    0.0000 C   0  0  0  0  0  0  0  0  0  0  0  0
   -4.4453   -1.6584    0.0000 C   0  0  0  0  0  0  0  0  0  0  0  0
   -4.8703   -3.0970    0.0000 C   0  0  0  0  0  0  0  0  0  0  0  0
   -6.3286   -3.4481    0.0000 C   0  0  0  0  0  0  0  0  0  0  0  0
   -3.8370   -4.1843    0.0000 C   0  0  0  0  0  0  0  0  0  0  0  0
  1  2  1  0
  1  3  1  0
  3  4  2  0
  4  5  1  0
  5  6  2  0
  6  7  1  0
  7  8  2  0
  7  9  1  0
  9 10  2  0
 10 11  1  0
 11 12  2  0
 12 13  1  0
 13 14  2  0
 14 15  1  0
 14 16  1  0
 16 17  2  0
  6 18  1  0
 18 19  1  0
 18 20  2  0
 20 21  1  0
 21 22  1  0
 22 23  2  0
 23 24  1  0
 23 25  1  0
 20  3  1  0
 17 11  1  0
M  END
>  <IC50>  (61) 
42.1

>  <cmpdNO>  (61) 
64

$$$$

     RDKit          2D

 30 31  0  0  0  0  0  0  0  0999 V2000
    1.6148   -0.2691    0.0000 O   0  0  0  0  0  0  0  0  0  0  0  0
    0.8032    0.9924    0.0000 C   0  0  0  0  0  0  0  0  0  0  0  0
   -0.6950    0.9203    0.0000 C   0  0  0  0  0  0  0  0  0  0  0  0
   -1.3817   -0.4133    0.0000 C   0  0  0  0  0  0  0  0  0  0  0  0
   -2.8800   -0.4854    0.0000 C   0  0  0  0  0  0  0  0  0  0  0  0
   -3.5667   -1.8190    0.0000 C   0  0  0  0  0  0  0  0  0  0  0  0
   -5.0649   -1.8911    0.0000 C   0  0  0  0  0  0  0  0  0  0  0  0
   -5.8765   -0.6296    0.0000 C   0  0  0  0  0  0  0  0  0  0  0  0
   -7.3748   -0.7018    0.0000 C   0  0  0  0  0  0  0  0  0  0  0  0
   -8.1864    0.5597    0.0000 O   0  0  0  0  0  0  0  0  0  0  0  0
   -9.6846    0.4876    0.0000 C   0  0  0  0  0  0  0  0  0  0  0  0
   -8.0615   -2.0353    0.0000 O   0  0  0  0  0  0  0  0  0  0  0  0
   -9.5597   -2.1075    0.0000 C   0  0  0  0  0  0  0  0  0  0  0  0
   -2.7551   -3.0805    0.0000 C   0  0  0  0  0  0  0  0  0  0  0  0
   -1.5066    2.1818    0.0000 C   0  0  0  0  0  0  0  0  0  0  0  0
   -3.0049    2.1096    0.0000 O   0  0  0  0  0  0  0  0  0  0  0  0
   -0.8199    3.5154    0.0000 C   0  0  0  0  0  0  0  0  0  0  0  0
    0.6783    3.5875    0.0000 C   0  0  0  0  0  0  0  0  0  0  0  0
    1.4899    2.3260    0.0000 C   0  0  0  0  0  0  0  0  0  0  0  0
    2.9882    2.3981    0.0000 C   0  0  0  0  0  0  0  0  0  0  0  0
    3.6749    3.7317    0.0000 O   0  0  0  0  0  0  0  0  0  0  0  0
    3.7998    1.1366    0.0000 C   0  0  0  0  0  0  0  0  0  0  0  0
    5.2980    1.2087    0.0000 C   0  0  0  0  0  0  0  0  0  0  0  0
    6.1096   -0.0528    0.0000 C   0  0  0  0  0  0  0  0  0  0  0  0
    5.4229   -1.3864    0.0000 C   0  0  0  0  0  0  0  0  0  0  0  0
    6.2345   -2.6478    0.0000 C   0  0  0  0  0  0  0  0  0  0  0  0
    7.7328   -2.5757    0.0000 C   0  0  0  0  0  0  0  0  0  0  0  0
    8.5443   -3.8372    0.0000 O   0  0  0  0  0  0  0  0  0  0  0  0
    8.4194   -1.2421    0.0000 C   0  0  0  0  0  0  0  0  0  0  0  0
    7.6079    0.0193    0.0000 C   0  0  0  0  0  0  0  0  0  0  0  0
  1  2  1  0
  2  3  2  0
  3  4  1  0
  4  5  1  0
  5  6  2  0
  6  7  1  0
  7  8  1  0
  8  9  1  0
  9 10  1  0
 10 11  1  0
  9 12  1  0
 12 13  1  0
  6 14  1  0
  3 15  1  0
 15 16  1  0
 15 17  2  0
 17 18  1  0
 18 19  2  0
 19 20  1  0
 20 21  2  0
 20 22  1  0
 22 23  2  0
 23 24  1  0
 24 25  2  0
 25 26  1  0
 26 27  2  0
 27 28  1  0
 27 29  1  0
 29 30  2  0
 19  2  1  0
 30 24  1  0
M  END
>  <IC50>  (62) 
30.9

>  <cmpdNO>  (62) 
65

$$$$

     RDKit          2D

 21 22  0  0  0  0  0  0  0  0999 V2000
    6.5630   -2.1077    0.0000 Cl  0  0  0  0  0  0  0  0  0  0  0  0
    5.4615   -1.0894    0.0000 C   0  0  0  0  0  0  0  0  0  0  0  0
    4.0290   -1.5342    0.0000 N   0  0  0  0  0  0  0  0  0  0  0  0
    2.9275   -0.5160    0.0000 C   0  0  0  0  0  0  0  0  0  0  0  0
    3.2586    0.9470    0.0000 N   0  0  0  0  0  0  0  0  0  0  0  0
    4.6911    1.3918    0.0000 C   0  0  0  0  0  0  0  0  0  0  0  0
    5.7926    0.3736    0.0000 C   0  0  0  0  0  0  0  0  0  0  0  0
    5.0222    2.8548    0.0000 C   0  0  0  0  0  0  0  0  0  0  0  0
    1.4950   -0.9608    0.0000 N   0  0  0  0  0  0  0  0  0  0  0  0
    0.3935    0.0574    0.0000 C   0  0  0  0  0  0  0  0  0  0  0  0
    0.7246    1.5204    0.0000 O   0  0  0  0  0  0  0  0  0  0  0  0
   -1.0390   -0.3874    0.0000 N   0  0  0  0  0  0  0  0  0  0  0  0
   -2.1405    0.6308    0.0000 C   0  0  0  0  0  0  0  0  0  0  0  0
   -3.5730    0.1861    0.0000 C   0  0  0  0  0  0  0  0  0  0  0  0
   -4.6745    1.2043    0.0000 C   0  0  0  0  0  0  0  0  0  0  0  0
   -4.3434    2.6673    0.0000 F   0  0  0  0  0  0  0  0  0  0  0  0
   -6.1070    0.7595    0.0000 C   0  0  0  0  0  0  0  0  0  0  0  0
   -6.4381   -0.7035    0.0000 C   0  0  0  0  0  0  0  0  0  0  0  0
   -5.3366   -1.7217    0.0000 C   0  0  0  0  0  0  0  0  0  0  0  0
   -3.9041   -1.2770    0.0000 C   0  0  0  0  0  0  0  0  0  0  0  0
   -2.8026   -2.2952    0.0000 F   0  0  0  0  0  0  0  0  0  0  0  0
  1  2  1  0
  2  3  2  0
  3  4  1  0
  4  5  2  0
  5  6  1  0
  6  7  2  0
  6  8  1  0
  4  9  1  0
  9 10  1  0
 10 11  2  0
 10 12  1  0
 12 13  1  0
 13 14  1  0
 14 15  2  0
 15 16  1  0
 15 17  1  0
 17 18  2  0
 18 19  1  0
 19 20  2  0
 20 21  1  0
  7  2  1  0
 20 14  1  0
M  END
>  <IC50>  (63) 
>20

>  <cmpdNO>  (63) 
66

$$$$

     RDKit          2D

 23 24  0  0  0  0  0  0  0  0999 V2000
   -3.3495   -2.2903    0.0000 F   0  0  0  0  0  0  0  0  0  0  0  0
   -4.4530   -1.2744    0.0000 C   0  0  0  0  0  0  0  0  0  0  0  0
   -5.8847   -1.7221    0.0000 C   0  0  0  0  0  0  0  0  0  0  0  0
   -6.9882   -0.7062    0.0000 C   0  0  0  0  0  0  0  0  0  0  0  0
   -6.6602    0.7575    0.0000 C   0  0  0  0  0  0  0  0  0  0  0  0
   -5.2286    1.2052    0.0000 C   0  0  0  0  0  0  0  0  0  0  0  0
   -4.9005    2.6689    0.0000 F   0  0  0  0  0  0  0  0  0  0  0  0
   -4.1250    0.1893    0.0000 C   0  0  0  0  0  0  0  0  0  0  0  0
   -2.6934    0.6371    0.0000 C   0  0  0  0  0  0  0  0  0  0  0  0
   -1.5898   -0.3789    0.0000 N   0  0  0  0  0  0  0  0  0  0  0  0
   -0.1582    0.0689    0.0000 C   0  0  0  0  0  0  0  0  0  0  0  0
    0.1698    1.5326    0.0000 O   0  0  0  0  0  0  0  0  0  0  0  0
    0.9454   -0.9471    0.0000 N   0  0  0  0  0  0  0  0  0  0  0  0
    2.3770   -0.4993    0.0000 C   0  0  0  0  0  0  0  0  0  0  0  0
    3.4806   -1.5152    0.0000 N   0  0  0  0  0  0  0  0  0  0  0  0
    4.9122   -1.0675    0.0000 C   0  0  0  0  0  0  0  0  0  0  0  0
    6.0157   -2.0834    0.0000 O   0  0  0  0  0  0  0  0  0  0  0  0
    5.6877   -3.5471    0.0000 C   0  0  0  0  0  0  0  0  0  0  0  0
    5.2402    0.3962    0.0000 C   0  0  0  0  0  0  0  0  0  0  0  0
    4.1366    1.4121    0.0000 C   0  0  0  0  0  0  0  0  0  0  0  0
    4.4647    2.8758    0.0000 O   0  0  0  0  0  0  0  0  0  0  0  0
    5.8963    3.3236    0.0000 C   0  0  0  0  0  0  0  0  0  0  0  0
    2.7050    0.9644    0.0000 N   0  0  0  0  0  0  0  0  0  0  0  0
  1  2  1  0
  2  3  2  0
  3  4  1  0
  4  5  2  0
  5  6  1  0
  6  7  1  0
  6  8  2  0
  8  9  1  0
  9 10  1  0
 10 11  1  0
 11 12  2  0
 11 13  1  0
 13 14  1  0
 14 15  2  0
 15 16  1  0
 16 17  1  0
 17 18  1  0
 16 19  2  0
 19 20  1  0
 20 21  1  0
 21 22  1  0
 20 23  2  0
  8  2  1  0
 23 14  1  0
M  END
>  <IC50>  (64) 
>20

>  <cmpdNO>  (64) 
67

$$$$

     RDKit          2D

 21 22  0  0  0  0  0  0  0  0999 V2000
   -2.8026   -2.2952    0.0000 F   0  0  0  0  0  0  0  0  0  0  0  0
   -3.9041   -1.2770    0.0000 C   0  0  0  0  0  0  0  0  0  0  0  0
   -5.3366   -1.7217    0.0000 C   0  0  0  0  0  0  0  0  0  0  0  0
   -6.4381   -0.7035    0.0000 C   0  0  0  0  0  0  0  0  0  0  0  0
   -6.1070    0.7595    0.0000 C   0  0  0  0  0  0  0  0  0  0  0  0
   -4.6745    1.2043    0.0000 C   0  0  0  0  0  0  0  0  0  0  0  0
   -4.3434    2.6673    0.0000 F   0  0  0  0  0  0  0  0  0  0  0  0
   -3.5730    0.1861    0.0000 C   0  0  0  0  0  0  0  0  0  0  0  0
   -2.1405    0.6308    0.0000 C   0  0  0  0  0  0  0  0  0  0  0  0
   -1.0390   -0.3874    0.0000 N   0  0  0  0  0  0  0  0  0  0  0  0
    0.3935    0.0574    0.0000 C   0  0  0  0  0  0  0  0  0  0  0  0
    0.7246    1.5204    0.0000 O   0  0  0  0  0  0  0  0  0  0  0  0
    1.4950   -0.9608    0.0000 N   0  0  0  0  0  0  0  0  0  0  0  0
    2.9275   -0.5160    0.0000 C   0  0  0  0  0  0  0  0  0  0  0  0
    4.0290   -1.5342    0.0000 N   0  0  0  0  0  0  0  0  0  0  0  0
    5.4615   -1.0894    0.0000 C   0  0  0  0  0  0  0  0  0  0  0  0
    5.7926    0.3736    0.0000 C   0  0  0  0  0  0  0  0  0  0  0  0
    4.6911    1.3918    0.0000 C   0  0  0  0  0  0  0  0  0  0  0  0
    3.2586    0.9470    0.0000 N   0  0  0  0  0  0  0  0  0  0  0  0
    5.0222    2.8548    0.0000 C   0  0  0  0  0  0  0  0  0  0  0  0
    6.5630   -2.1077    0.0000 C   0  0  0  0  0  0  0  0  0  0  0  0
  1  2  1  0
  2  3  2  0
  3  4  1  0
  4  5  2  0
  5  6  1  0
  6  7  1  0
  6  8  2  0
  8  9  1  0
  9 10  1  0
 10 11  1  0
 11 12  2  0
 11 13  1  0
 13 14  1  0
 14 15  2  0
 15 16  1  0
 16 17  2  0
 17 18  1  0
 18 19  2  0
 18 20  1  0
 16 21  1  0
  8  2  1  0
 19 14  1  0
M  END
>  <IC50>  (65) 
>20

>  <cmpdNO>  (65) 
68

$$$$

     RDKit          2D

 22 24  0  0  0  0  0  0  0  0999 V2000
    0.4210   -0.5285    0.0000 S   0  0  0  0  0  0  0  0  0  0  0  0
    1.8908   -0.2290    0.0000 N   0  0  0  0  0  0  0  0  0  0  0  0
    2.0602    1.2615    0.0000 C   0  0  0  0  0  0  0  0  0  0  0  0
    3.4356    1.8600    0.0000 N   0  0  0  0  0  0  0  0  0  0  0  0
    4.6416    0.9681    0.0000 C   0  0  0  0  0  0  0  0  0  0  0  0
    6.0171    1.5667    0.0000 O   0  0  0  0  0  0  0  0  0  0  0  0
    7.2231    0.6748    0.0000 C   0  0  0  0  0  0  0  0  0  0  0  0
    4.4723   -0.5223    0.0000 C   0  0  0  0  0  0  0  0  0  0  0  0
    3.0969   -1.1208    0.0000 C   0  0  0  0  0  0  0  0  0  0  0  0
    2.9276   -2.6112    0.0000 O   0  0  0  0  0  0  0  0  0  0  0  0
    4.1336   -3.5031    0.0000 C   0  0  0  0  0  0  0  0  0  0  0  0
    0.6950    1.8831    0.0000 N   0  0  0  0  0  0  0  0  0  0  0  0
   -0.3180    0.7768    0.0000 C   0  0  0  0  0  0  0  0  0  0  0  0
   -1.8084    0.9462    0.0000 N   0  0  0  0  0  0  0  0  0  0  0  0
   -2.7003   -0.2599    0.0000 C   0  0  0  0  0  0  0  0  0  0  0  0
   -2.1017   -1.6353    0.0000 O   0  0  0  0  0  0  0  0  0  0  0  0
   -4.1907   -0.0905    0.0000 C   0  0  0  0  0  0  0  0  0  0  0  0
   -4.7892    1.2849    0.0000 N   0  0  0  0  0  0  0  0  0  0  0  0
   -6.2796    1.4542    0.0000 C   0  0  0  0  0  0  0  0  0  0  0  0
   -7.1715    0.2481    0.0000 C   0  0  0  0  0  0  0  0  0  0  0  0
   -6.5729   -1.1273    0.0000 C   0  0  0  0  0  0  0  0  0  0  0  0
   -5.0825   -1.2966    0.0000 C   0  0  0  0  0  0  0  0  0  0  0  0
  1  2  1  0
  2  3  1  0
  3  4  1  0
  4  5  2  0
  5  6  1  0
  6  7  1  0
  5  8  1  0
  8  9  2  0
  9 10  1  0
 10 11  1  0
  3 12  2  0
 12 13  1  0
 13 14  2  0
 14 15  1  0
 15 16  2  0
 15 17  1  0
 17 18  2  0
 18 19  1  0
 19 20  2  0
 20 21  1  0
 21 22  2  0
  1 13  1  0
 22 17  1  0
  9  2  1  0
M  END
>  <IC50>  (66) 
>20

>  <cmpdNO>  (66) 
69

$$$$

     RDKit          2D

 26 28  0  0  0  0  0  0  0  0999 V2000
    8.4611   -2.1802    0.0000 Cl  0  0  0  0  0  0  0  0  0  0  0  0
    7.4406   -1.0809    0.0000 C   0  0  0  0  0  0  0  0  0  0  0  0
    5.9783   -1.4151    0.0000 C   0  0  0  0  0  0  0  0  0  0  0  0
    4.9577   -0.3158    0.0000 C   0  0  0  0  0  0  0  0  0  0  0  0
    5.3994    1.1177    0.0000 C   0  0  0  0  0  0  0  0  0  0  0  0
    6.8617    1.4519    0.0000 C   0  0  0  0  0  0  0  0  0  0  0  0
    7.3035    2.8854    0.0000 Cl  0  0  0  0  0  0  0  0  0  0  0  0
    7.8823    0.3526    0.0000 C   0  0  0  0  0  0  0  0  0  0  0  0
    3.4954   -0.6500    0.0000 C   0  0  0  0  0  0  0  0  0  0  0  0
    2.4748    0.4493    0.0000 O   0  0  0  0  0  0  0  0  0  0  0  0
    1.0125    0.1152    0.0000 C   0  0  0  0  0  0  0  0  0  0  0  0
    0.5708   -1.3183    0.0000 O   0  0  0  0  0  0  0  0  0  0  0  0
   -0.0080    1.2145    0.0000 N   0  0  0  0  0  0  0  0  0  0  0  0
   -1.4703    0.8803    0.0000 C   0  0  0  0  0  0  0  0  0  0  0  0
   -2.0595   -0.4992    0.0000 S   0  0  0  0  0  0  0  0  0  0  0  0
   -3.5535   -0.3651    0.0000 N   0  0  0  0  0  0  0  0  0  0  0  0
   -3.8877    1.0972    0.0000 C   0  0  0  0  0  0  0  0  0  0  0  0
   -5.3211    1.5389    0.0000 N   0  0  0  0  0  0  0  0  0  0  0  0
   -6.4204    0.5184    0.0000 C   0  0  0  0  0  0  0  0  0  0  0  0
   -7.8539    0.9601    0.0000 O   0  0  0  0  0  0  0  0  0  0  0  0
   -8.1881    2.4224    0.0000 C   0  0  0  0  0  0  0  0  0  0  0  0
   -6.0863   -0.9439    0.0000 C   0  0  0  0  0  0  0  0  0  0  0  0
   -4.6528   -1.3857    0.0000 C   0  0  0  0  0  0  0  0  0  0  0  0
   -4.3186   -2.8480    0.0000 O   0  0  0  0  0  0  0  0  0  0  0  0
   -5.4179   -3.8685    0.0000 C   0  0  0  0  0  0  0  0  0  0  0  0
   -2.6002    1.8669    0.0000 N   0  0  0  0  0  0  0  0  0  0  0  0
  1  2  1  0
  2  3  2  0
  3  4  1  0
  4  5  2  0
  5  6  1  0
  6  7  1  0
  6  8  2  0
  4  9  1  0
  9 10  1  0
 10 11  1  0
 11 12  2  0
 11 13  1  0
 13 14  2  0
 14 15  1  0
 15 16  1  0
 16 17  1  0
 17 18  1  0
 18 19  2  0
 19 20  1  0
 20 21  1  0
 19 22  1  0
 22 23  2  0
 23 24  1  0
 24 25  1  0
 17 26  2  0
  8  2  1  0
 14 26  1  0
 23 16  1  0
M  END
>  <IC50>  (67) 
>20

>  <cmpdNO>  (67) 
70

$$$$

     RDKit          2D

 22 24  0  0  0  0  0  0  0  0999 V2000
    0.0651   -0.6215    0.0000 O   0  0  0  0  0  0  0  0  0  0  0  0
   -1.3957   -0.2808    0.0000 C   0  0  0  0  0  0  0  0  0  0  0  0
   -1.8310    1.1547    0.0000 C   0  0  0  0  0  0  0  0  0  0  0  0
   -0.8055    2.2494    0.0000 C   0  0  0  0  0  0  0  0  0  0  0  0
   -1.2408    3.6849    0.0000 O   0  0  0  0  0  0  0  0  0  0  0  0
    0.6553    1.9087    0.0000 C   0  0  0  0  0  0  0  0  0  0  0  0
    1.0906    0.4732    0.0000 C   0  0  0  0  0  0  0  0  0  0  0  0
    2.5513    0.1325    0.0000 C   0  0  0  0  0  0  0  0  0  0  0  0
    2.9866   -1.3030    0.0000 C   0  0  0  0  0  0  0  0  0  0  0  0
    4.4474   -1.6437    0.0000 C   0  0  0  0  0  0  0  0  0  0  0  0
    5.4729   -0.5490    0.0000 C   0  0  0  0  0  0  0  0  0  0  0  0
    6.9337   -0.8898    0.0000 O   0  0  0  0  0  0  0  0  0  0  0  0
    5.0376    0.8864    0.0000 C   0  0  0  0  0  0  0  0  0  0  0  0
    3.5768    1.2272    0.0000 C   0  0  0  0  0  0  0  0  0  0  0  0
   -3.2918    1.4954    0.0000 C   0  0  0  0  0  0  0  0  0  0  0  0
   -3.7271    2.9309    0.0000 O   0  0  0  0  0  0  0  0  0  0  0  0
   -4.3173    0.4007    0.0000 C   0  0  0  0  0  0  0  0  0  0  0  0
   -3.8820   -1.0347    0.0000 C   0  0  0  0  0  0  0  0  0  0  0  0
   -4.9075   -2.1294    0.0000 O   0  0  0  0  0  0  0  0  0  0  0  0
   -2.4212   -1.3755    0.0000 C   0  0  0  0  0  0  0  0  0  0  0  0
   -1.9859   -2.8109    0.0000 O   0  0  0  0  0  0  0  0  0  0  0  0
   -3.0114   -3.9056    0.0000 C   0  0  0  0  0  0  0  0  0  0  0  0
  1  2  1  0
  2  3  2  0
  3  4  1  0
  4  5  2  0
  4  6  1  0
  6  7  2  0
  7  8  1  0
  8  9  2  0
  9 10  1  0
 10 11  2  0
 11 12  1  0
 11 13  1  0
 13 14  2  0
  3 15  1  0
 15 16  1  0
 15 17  2  0
 17 18  1  0
 18 19  1  0
 18 20  2  0
 20 21  1  0
 21 22  1  0
  7  1  1  0
 14  8  1  0
 20  2  1  0
M  END
>  <IC50>  (68) 
43.79

>  <cmpdNO>  (68) 
71

$$$$

     RDKit          2D

 43 46  0  0  0  0  0  0  0  0999 V2000
    0.6624    2.1979    0.0000 O   0  0  0  0  0  0  0  0  0  0  0  0
    0.0351    3.5605    0.0000 C   0  0  0  0  0  0  0  0  0  0  0  0
    0.9014    4.7850    0.0000 C   0  0  0  0  0  0  0  0  0  0  0  0
    0.2741    6.1475    0.0000 O   0  0  0  0  0  0  0  0  0  0  0  0
   -1.4586    3.6985    0.0000 C   0  0  0  0  0  0  0  0  0  0  0  0
   -2.0859    5.0610    0.0000 O   0  0  0  0  0  0  0  0  0  0  0  0
   -2.3249    2.4740    0.0000 C   0  0  0  0  0  0  0  0  0  0  0  0
   -3.8186    2.6120    0.0000 O   0  0  0  0  0  0  0  0  0  0  0  0
   -1.6976    1.1114    0.0000 C   0  0  0  0  0  0  0  0  0  0  0  0
   -2.5640   -0.1131    0.0000 O   0  0  0  0  0  0  0  0  0  0  0  0
   -4.0576    0.0249    0.0000 C   0  0  0  0  0  0  0  0  0  0  0  0
   -4.6849    1.3875    0.0000 O   0  0  0  0  0  0  0  0  0  0  0  0
   -6.1785    1.5255    0.0000 C   0  0  0  0  0  0  0  0  0  0  0  0
   -7.0449    0.3010    0.0000 C   0  0  0  0  0  0  0  0  0  0  0  0
   -8.5385    0.4390    0.0000 O   0  0  0  0  0  0  0  0  0  0  0  0
   -6.4176   -1.0616    0.0000 C   0  0  0  0  0  0  0  0  0  0  0  0
   -7.2839   -2.2861    0.0000 O   0  0  0  0  0  0  0  0  0  0  0  0
   -4.9239   -1.1996    0.0000 C   0  0  0  0  0  0  0  0  0  0  0  0
   -4.2967   -2.5621    0.0000 O   0  0  0  0  0  0  0  0  0  0  0  0
   -0.2040    0.9734    0.0000 C   0  0  0  0  0  0  0  0  0  0  0  0
    0.4233   -0.3891    0.0000 O   0  0  0  0  0  0  0  0  0  0  0  0
    1.9169   -0.5271    0.0000 C   0  0  0  0  0  0  0  0  0  0  0  0
    2.5442   -1.8897    0.0000 C   0  0  0  0  0  0  0  0  0  0  0  0
    4.0379   -2.0277    0.0000 O   0  0  0  0  0  0  0  0  0  0  0  0
    4.9042   -0.8032    0.0000 C   0  0  0  0  0  0  0  0  0  0  0  0
    4.2769    0.5594    0.0000 C   0  0  0  0  0  0  0  0  0  0  0  0
    2.7833    0.6974    0.0000 C   0  0  0  0  0  0  0  0  0  0  0  0
    2.1560    2.0599    0.0000 O   0  0  0  0  0  0  0  0  0  0  0  0
    5.1433    1.7839    0.0000 C   0  0  0  0  0  0  0  0  0  0  0  0
    4.5160    3.1464    0.0000 O   0  0  0  0  0  0  0  0  0  0  0  0
    6.6369    1.6459    0.0000 C   0  0  0  0  0  0  0  0  0  0  0  0
    7.2642    0.2833    0.0000 C   0  0  0  0  0  0  0  0  0  0  0  0
    8.7578    0.1453    0.0000 O   0  0  0  0  0  0  0  0  0  0  0  0
    6.3979   -0.9412    0.0000 C   0  0  0  0  0  0  0  0  0  0  0  0
    1.6779   -3.1142    0.0000 C   0  0  0  0  0  0  0  0  0  0  0  0
    0.1843   -2.9762    0.0000 C   0  0  0  0  0  0  0  0  0  0  0  0
   -0.6821   -4.2007    0.0000 C   0  0  0  0  0  0  0  0  0  0  0  0
   -0.0548   -5.5632    0.0000 C   0  0  0  0  0  0  0  0  0  0  0  0
   -0.9211   -6.7878    0.0000 O   0  0  0  0  0  0  0  0  0  0  0  0
    1.4388   -5.7012    0.0000 C   0  0  0  0  0  0  0  0  0  0  0  0
    2.3052   -4.4767    0.0000 C   0  0  0  0  0  0  0  0  0  0  0  0
    0.0000    8.6475    0.0000 H   0  0  0  0  0  0  0  0  0  0  0  0
   -0.0000    7.1475    0.0000 H   0  0  0  0  0  0  0  0  0  0  0  0
  1  2  1  0
  2  3  1  0
  3  4  1  0
  2  5  1  0
  5  6  1  0
  5  7  1  0
  7  8  1  0
  7  9  1  0
  9 10  1  0
 10 11  1  0
 11 12  1  0
 12 13  1  0
 13 14  1  0
 14 15  1  0
 14 16  1  0
 16 17  1  0
 16 18  1  0
 18 19  1  0
  9 20  1  0
 20 21  1  0
 21 22  1  0
 22 23  2  0
 23 24  1  0
 24 25  1  0
 25 26  2  0
 26 27  1  0
 27 28  2  0
 26 29  1  0
 29 30  1  0
 29 31  2  0
 31 32  1  0
 32 33  1  0
 32 34  2  0
 23 35  1  0
 35 36  2  0
 36 37  1  0
 37 38  2  0
 38 39  1  0
 38 40  1  0
 40 41  2  0
 42 43  1  0
 20  1  1  0
 27 22  1  0
 41 35  1  0
 18 11  1  0
 34 25  1  0
M  END
>  <IC50>  (69) 
42.21

>  <cmpdNO>  (69) 
72

$$$$

     RDKit          2D

 18 20  0  0  0  0  0  0  0  0999 V2000
    1.0878    1.8700    0.0000 O   0  0  0  0  0  0  0  0  0  0  0  0
    2.2317    0.8997    0.0000 C   0  0  0  0  0  0  0  0  0  0  0  0
    1.6624   -0.4881    0.0000 C   0  0  0  0  0  0  0  0  0  0  0  0
    2.5795   -1.6750    0.0000 C   0  0  0  0  0  0  0  0  0  0  0  0
    4.0660   -1.4742    0.0000 C   0  0  0  0  0  0  0  0  0  0  0  0
    4.6353   -0.0864    0.0000 C   0  0  0  0  0  0  0  0  0  0  0  0
    6.1218    0.1144    0.0000 O   0  0  0  0  0  0  0  0  0  0  0  0
    3.7182    1.1005    0.0000 C   0  0  0  0  0  0  0  0  0  0  0  0
    0.1666   -0.3755    0.0000 C   0  0  0  0  0  0  0  0  0  0  0  0
   -0.8037   -1.5194    0.0000 O   0  0  0  0  0  0  0  0  0  0  0  0
   -0.1885    1.0819    0.0000 C   0  0  0  0  0  0  0  0  0  0  0  0
   -1.5763    1.6512    0.0000 C   0  0  0  0  0  0  0  0  0  0  0  0
   -2.7632    0.7340    0.0000 C   0  0  0  0  0  0  0  0  0  0  0  0
   -4.1510    1.3033    0.0000 C   0  0  0  0  0  0  0  0  0  0  0  0
   -5.3379    0.3862    0.0000 C   0  0  0  0  0  0  0  0  0  0  0  0
   -5.1371   -1.1003    0.0000 C   0  0  0  0  0  0  0  0  0  0  0  0
   -3.7493   -1.6697    0.0000 C   0  0  0  0  0  0  0  0  0  0  0  0
   -2.5624   -0.7525    0.0000 C   0  0  0  0  0  0  0  0  0  0  0  0
  1  2  1  0
  2  3  2  0
  3  4  1  0
  4  5  2  0
  5  6  1  0
  6  7  1  0
  6  8  2  0
  3  9  1  0
  9 10  2  0
  9 11  1  0
 11 12  2  0
 12 13  1  0
 13 14  2  0
 14 15  1  0
 15 16  2  0
 16 17  1  0
 17 18  2  0
  1 11  1  0
 18 13  1  0
  8  2  1  0
M  END
>  <IC50>  (70) 
72

>  <cmpdNO>  (70) 
73

$$$$

     RDKit          2D

 31 34  0  0  0  0  0  0  0  0999 V2000
   -5.7061   -1.2342    0.0000 O   0  0  0  0  0  0  0  0  0  0  0  0
   -6.6566   -0.0739    0.0000 C   0  0  0  0  0  0  0  0  0  0  0  0
   -8.1368   -0.3169    0.0000 C   0  0  0  0  0  0  0  0  0  0  0  0
   -9.0874    0.8434    0.0000 O   0  0  0  0  0  0  0  0  0  0  0  0
   -6.1270    1.3295    0.0000 C   0  0  0  0  0  0  0  0  0  0  0  0
   -7.0776    2.4899    0.0000 O   0  0  0  0  0  0  0  0  0  0  0  0
   -4.6469    1.5726    0.0000 C   0  0  0  0  0  0  0  0  0  0  0  0
   -4.1173    2.9760    0.0000 O   0  0  0  0  0  0  0  0  0  0  0  0
   -3.6963    0.4122    0.0000 C   0  0  0  0  0  0  0  0  0  0  0  0
   -2.2161    0.6553    0.0000 O   0  0  0  0  0  0  0  0  0  0  0  0
   -4.2259   -0.9912    0.0000 C   0  0  0  0  0  0  0  0  0  0  0  0
   -3.2753   -2.1515    0.0000 O   0  0  0  0  0  0  0  0  0  0  0  0
   -1.7951   -1.9085    0.0000 C   0  0  0  0  0  0  0  0  0  0  0  0
   -0.8446   -3.0688    0.0000 C   0  0  0  0  0  0  0  0  0  0  0  0
    0.6356   -2.8258    0.0000 C   0  0  0  0  0  0  0  0  0  0  0  0
    1.1652   -1.4224    0.0000 C   0  0  0  0  0  0  0  0  0  0  0  0
    0.2146   -0.2620    0.0000 C   0  0  0  0  0  0  0  0  0  0  0  0
   -1.2655   -0.5051    0.0000 C   0  0  0  0  0  0  0  0  0  0  0  0
    2.6454   -1.1793    0.0000 C   0  0  0  0  0  0  0  0  0  0  0  0
    3.5960   -2.3397    0.0000 C   0  0  0  0  0  0  0  0  0  0  0  0
    5.0762   -2.0966    0.0000 O   0  0  0  0  0  0  0  0  0  0  0  0
    5.6058   -0.6932    0.0000 C   0  0  0  0  0  0  0  0  0  0  0  0
    4.6552    0.4671    0.0000 C   0  0  0  0  0  0  0  0  0  0  0  0
    3.1750    0.2241    0.0000 C   0  0  0  0  0  0  0  0  0  0  0  0
    2.2244    1.3844    0.0000 O   0  0  0  0  0  0  0  0  0  0  0  0
    5.1848    1.8705    0.0000 C   0  0  0  0  0  0  0  0  0  0  0  0
    4.2342    3.0309    0.0000 O   0  0  0  0  0  0  0  0  0  0  0  0
    6.6650    2.1136    0.0000 C   0  0  0  0  0  0  0  0  0  0  0  0
    7.6155    0.9532    0.0000 C   0  0  0  0  0  0  0  0  0  0  0  0
    9.0957    1.1963    0.0000 O   0  0  0  0  0  0  0  0  0  0  0  0
    7.0859   -0.4502    0.0000 C   0  0  0  0  0  0  0  0  0  0  0  0
  1  2  1  0
  2  3  1  0
  3  4  1  0
  2  5  1  0
  5  6  1  0
  5  7  1  0
  7  8  1  0
  7  9  1  0
  9 10  1  0
  9 11  1  0
 11 12  1  0
 12 13  1  0
 13 14  2  0
 14 15  1  0
 15 16  2  0
 16 17  1  0
 17 18  2  0
 16 19  1  0
 19 20  2  0
 20 21  1  0
 21 22  1  0
 22 23  2  0
 23 24  1  0
 24 25  2  0
 23 26  1  0
 26 27  1  0
 26 28  2  0
 28 29  1  0
 29 30  1  0
 29 31  2  0
 11  1  1  0
 18 13  1  0
 24 19  1  0
 31 22  1  0
M  END
>  <IC50>  (71) 
>100

>  <cmpdNO>  (71) 
74

$$$$

     RDKit          2D

 20 22  0  0  0  0  0  0  0  0999 V2000
    1.9439   -2.0828    0.0000 O   0  0  0  0  0  0  0  0  0  0  0  0
    0.4510   -1.9367    0.0000 C   0  0  0  0  0  0  0  0  0  0  0  0
   -0.1689   -0.5708    0.0000 C   0  0  0  0  0  0  0  0  0  0  0  0
    0.7040    0.6490    0.0000 C   0  0  0  0  0  0  0  0  0  0  0  0
    0.0841    2.0149    0.0000 O   0  0  0  0  0  0  0  0  0  0  0  0
    2.1969    0.5029    0.0000 C   0  0  0  0  0  0  0  0  0  0  0  0
    2.8168   -0.8630    0.0000 C   0  0  0  0  0  0  0  0  0  0  0  0
    4.3097   -1.0091    0.0000 C   0  0  0  0  0  0  0  0  0  0  0  0
    5.1827    0.2108    0.0000 C   0  0  0  0  0  0  0  0  0  0  0  0
    6.6755    0.0647    0.0000 O   0  0  0  0  0  0  0  0  0  0  0  0
    4.5627    1.5767    0.0000 C   0  0  0  0  0  0  0  0  0  0  0  0
    3.0699    1.7227    0.0000 C   0  0  0  0  0  0  0  0  0  0  0  0
   -1.6618   -0.4248    0.0000 C   0  0  0  0  0  0  0  0  0  0  0  0
   -2.2817    0.9411    0.0000 C   0  0  0  0  0  0  0  0  0  0  0  0
   -3.7746    1.0872    0.0000 C   0  0  0  0  0  0  0  0  0  0  0  0
   -4.6475   -0.1326    0.0000 C   0  0  0  0  0  0  0  0  0  0  0  0
   -6.1404    0.0135    0.0000 O   0  0  0  0  0  0  0  0  0  0  0  0
   -6.7603    1.3794    0.0000 C   0  0  0  0  0  0  0  0  0  0  0  0
   -4.0276   -1.4985    0.0000 C   0  0  0  0  0  0  0  0  0  0  0  0
   -2.5347   -1.6446    0.0000 C   0  0  0  0  0  0  0  0  0  0  0  0
  1  2  1  0
  2  3  1  0
  3  4  1  0
  4  5  2  0
  4  6  1  0
  6  7  2  0
  7  8  1  0
  8  9  2  0
  9 10  1  0
  9 11  1  0
 11 12  2  0
  3 13  1  0
 13 14  2  0
 14 15  1  0
 15 16  2  0
 16 17  1  0
 17 18  1  0
 16 19  1  0
 19 20  2  0
  7  1  1  0
 20 13  1  0
 12  6  1  0
M  END
>  <IC50>  (72) 
>100

>  <cmpdNO>  (72) 
75

$$$$

     RDKit          2D

 20 22  0  0  0  0  0  0  0  0999 V2000
    1.3113   -2.2765    0.0000 O   0  0  0  0  0  0  0  0  0  0  0  0
   -0.1658   -2.0154    0.0000 C   0  0  0  0  0  0  0  0  0  0  0  0
   -0.6783   -0.6057    0.0000 C   0  0  0  0  0  0  0  0  0  0  0  0
    0.2864    0.5430    0.0000 C   0  0  0  0  0  0  0  0  0  0  0  0
   -0.2261    1.9528    0.0000 O   0  0  0  0  0  0  0  0  0  0  0  0
    1.7635    0.2819    0.0000 C   0  0  0  0  0  0  0  0  0  0  0  0
    2.2760   -1.1278    0.0000 C   0  0  0  0  0  0  0  0  0  0  0  0
    3.7531   -1.3889    0.0000 C   0  0  0  0  0  0  0  0  0  0  0  0
    4.7177   -0.2402    0.0000 C   0  0  0  0  0  0  0  0  0  0  0  0
    6.1948   -0.5012    0.0000 O   0  0  0  0  0  0  0  0  0  0  0  0
    4.2052    1.1696    0.0000 C   0  0  0  0  0  0  0  0  0  0  0  0
    2.7281    1.4306    0.0000 C   0  0  0  0  0  0  0  0  0  0  0  0
    2.2157    2.8404    0.0000 O   0  0  0  0  0  0  0  0  0  0  0  0
   -2.1554   -0.3446    0.0000 C   0  0  0  0  0  0  0  0  0  0  0  0
   -2.6678    1.0651    0.0000 C   0  0  0  0  0  0  0  0  0  0  0  0
   -4.1449    1.3262    0.0000 C   0  0  0  0  0  0  0  0  0  0  0  0
   -5.1096    0.1775    0.0000 C   0  0  0  0  0  0  0  0  0  0  0  0
   -6.5867    0.4386    0.0000 O   0  0  0  0  0  0  0  0  0  0  0  0
   -4.5971   -1.2322    0.0000 C   0  0  0  0  0  0  0  0  0  0  0  0
   -3.1200   -1.4933    0.0000 C   0  0  0  0  0  0  0  0  0  0  0  0
  1  2  1  0
  2  3  2  0
  3  4  1  0
  4  5  2  0
  4  6  1  0
  6  7  2  0
  7  8  1  0
  8  9  2  0
  9 10  1  0
  9 11  1  0
 11 12  2  0
 12 13  1  0
  3 14  1  0
 14 15  2  0
 15 16  1  0
 16 17  2  0
 17 18  1  0
 17 19  1  0
 19 20  2  0
  7  1  1  0
 20 14  1  0
 12  6  1  0
M  END
>  <IC50>  (73) 
77.1

>  <cmpdNO>  (73) 
76

$$$$

     RDKit          2D

 21 23  0  0  0  0  0  0  0  0999 V2000
   -0.4541   -0.8194    0.0000 O   0  0  0  0  0  0  0  0  0  0  0  0
   -1.9442   -0.6475    0.0000 C   0  0  0  0  0  0  0  0  0  0  0  0
   -2.5403    0.7290    0.0000 C   0  0  0  0  0  0  0  0  0  0  0  0
   -1.6464    1.9335    0.0000 C   0  0  0  0  0  0  0  0  0  0  0  0
   -0.1563    1.7616    0.0000 C   0  0  0  0  0  0  0  0  0  0  0  0
    0.7377    2.9661    0.0000 O   0  0  0  0  0  0  0  0  0  0  0  0
    0.4399    0.3851    0.0000 C   0  0  0  0  0  0  0  0  0  0  0  0
    1.9300    0.2132    0.0000 C   0  0  0  0  0  0  0  0  0  0  0  0
    2.5262   -1.1632    0.0000 C   0  0  0  0  0  0  0  0  0  0  0  0
    4.0163   -1.3352    0.0000 C   0  0  0  0  0  0  0  0  0  0  0  0
    4.6125   -2.7116    0.0000 O   0  0  0  0  0  0  0  0  0  0  0  0
    4.9102   -0.1307    0.0000 C   0  0  0  0  0  0  0  0  0  0  0  0
    6.4004   -0.3026    0.0000 O   0  0  0  0  0  0  0  0  0  0  0  0
    4.3141    1.2458    0.0000 C   0  0  0  0  0  0  0  0  0  0  0  0
    2.8240    1.4177    0.0000 C   0  0  0  0  0  0  0  0  0  0  0  0
   -4.0304    0.9009    0.0000 C   0  0  0  0  0  0  0  0  0  0  0  0
   -4.6266    2.2774    0.0000 O   0  0  0  0  0  0  0  0  0  0  0  0
   -4.9244   -0.3036    0.0000 C   0  0  0  0  0  0  0  0  0  0  0  0
   -4.3282   -1.6800    0.0000 C   0  0  0  0  0  0  0  0  0  0  0  0
   -5.2222   -2.8846    0.0000 O   0  0  0  0  0  0  0  0  0  0  0  0
   -2.8381   -1.8520    0.0000 C   0  0  0  0  0  0  0  0  0  0  0  0
  1  2  1  0
  2  3  2  0
  3  4  1  0
  4  5  1  0
  5  6  1  0
  5  7  1  0
  7  8  1  0
  8  9  2  0
  9 10  1  0
 10 11  1  0
 10 12  2  0
 12 13  1  0
 12 14  1  0
 14 15  2  0
  3 16  1  0
 16 17  1  0
 16 18  2  0
 18 19  1  0
 19 20  1  0
 19 21  2  0
  7  1  1  0
 15  8  1  0
 21  2  1  0
M  END
>  <IC50>  (74) 
>100

>  <cmpdNO>  (74) 
77

$$$$

     RDKit          2D

 46 49  0  0  0  0  0  0  0  0999 V2000
   -2.4097   -1.8320    0.0000 O   0  0  0  0  0  0  0  0  0  0  0  0
   -3.1918   -0.5520    0.0000 C   0  0  0  0  0  0  0  0  0  0  0  0
   -4.6913   -0.5894    0.0000 C   0  0  0  0  0  0  0  0  0  0  0  0
   -5.4734    0.6906    0.0000 O   0  0  0  0  0  0  0  0  0  0  0  0
   -6.9730    0.6532    0.0000 C   0  0  0  0  0  0  0  0  0  0  0  0
   -7.7551    1.9332    0.0000 O   0  0  0  0  0  0  0  0  0  0  0  0
   -9.2546    1.8959    0.0000 C   0  0  0  0  0  0  0  0  0  0  0  0
  -10.0367    3.1758    0.0000 C   0  0  0  0  0  0  0  0  0  0  0  0
   -9.3193    4.4931    0.0000 C   0  0  0  0  0  0  0  0  0  0  0  0
   -9.9720    0.5785    0.0000 C   0  0  0  0  0  0  0  0  0  0  0  0
  -11.4716    0.5412    0.0000 O   0  0  0  0  0  0  0  0  0  0  0  0
   -9.1899   -0.7014    0.0000 C   0  0  0  0  0  0  0  0  0  0  0  0
   -9.9074   -2.0187    0.0000 O   0  0  0  0  0  0  0  0  0  0  0  0
   -7.6904   -0.6641    0.0000 C   0  0  0  0  0  0  0  0  0  0  0  0
   -6.9083   -1.9440    0.0000 O   0  0  0  0  0  0  0  0  0  0  0  0
   -2.4744    0.7653    0.0000 C   0  0  0  0  0  0  0  0  0  0  0  0
   -3.2565    2.0452    0.0000 O   0  0  0  0  0  0  0  0  0  0  0  0
   -0.9748    0.8026    0.0000 C   0  0  0  0  0  0  0  0  0  0  0  0
   -0.2574    2.1199    0.0000 O   0  0  0  0  0  0  0  0  0  0  0  0
   -0.1927   -0.4773    0.0000 C   0  0  0  0  0  0  0  0  0  0  0  0
    1.3068   -0.4400    0.0000 O   0  0  0  0  0  0  0  0  0  0  0  0
   -0.9101   -1.7946    0.0000 C   0  0  0  0  0  0  0  0  0  0  0  0
   -0.1280   -3.0746    0.0000 O   0  0  0  0  0  0  0  0  0  0  0  0
    1.3715   -3.0372    0.0000 C   0  0  0  0  0  0  0  0  0  0  0  0
    2.1536   -4.3172    0.0000 C   0  0  0  0  0  0  0  0  0  0  0  0
    3.6532   -4.2799    0.0000 C   0  0  0  0  0  0  0  0  0  0  0  0
    4.4353   -5.5598    0.0000 O   0  0  0  0  0  0  0  0  0  0  0  0
    4.3706   -2.9625    0.0000 C   0  0  0  0  0  0  0  0  0  0  0  0
    3.5885   -1.6826    0.0000 C   0  0  0  0  0  0  0  0  0  0  0  0
    4.3059   -0.3653    0.0000 O   0  0  0  0  0  0  0  0  0  0  0  0
    5.8054   -0.3279    0.0000 C   0  0  0  0  0  0  0  0  0  0  0  0
    6.5875   -1.6079    0.0000 C   0  0  0  0  0  0  0  0  0  0  0  0
    5.8701   -2.9252    0.0000 C   0  0  0  0  0  0  0  0  0  0  0  0
    6.6522   -4.2052    0.0000 O   0  0  0  0  0  0  0  0  0  0  0  0
    6.5228    0.9894    0.0000 C   0  0  0  0  0  0  0  0  0  0  0  0
    8.0224    1.0267    0.0000 C   0  0  0  0  0  0  0  0  0  0  0  0
    8.7398    2.3440    0.0000 C   0  0  0  0  0  0  0  0  0  0  0  0
   10.2393    2.3814    0.0000 O   0  0  0  0  0  0  0  0  0  0  0  0
    7.9577    3.6240    0.0000 C   0  0  0  0  0  0  0  0  0  0  0  0
    8.6751    4.9413    0.0000 O   0  0  0  0  0  0  0  0  0  0  0  0
    7.8930    6.2213    0.0000 C   0  0  0  0  0  0  0  0  0  0  0  0
    6.4582    3.5867    0.0000 C   0  0  0  0  0  0  0  0  0  0  0  0
    5.7407    2.2693    0.0000 C   0  0  0  0  0  0  0  0  0  0  0  0
    2.0889   -1.7199    0.0000 C   0  0  0  0  0  0  0  0  0  0  0  0
    0.0000    8.7213    0.0000 H   0  0  0  0  0  0  0  0  0  0  0  0
   -0.0000    7.2213    0.0000 H   0  0  0  0  0  0  0  0  0  0  0  0
  1  2  1  0
  2  3  1  0
  3  4  1  0
  4  5  1  0
  5  6  1  0
  6  7  1  0
  7  8  1  0
  8  9  1  0
  7 10  1  0
 10 11  1  0
 10 12  1  0
 12 13  1  0
 12 14  1  0
 14 15  1  0
  2 16  1  0
 16 17  1  0
 16 18  1  0
 18 19  1  0
 18 20  1  0
 20 21  1  0
 20 22  1  0
 22 23  1  0
 23 24  1  0
 24 25  2  0
 25 26  1  0
 26 27  1  0
 26 28  2  0
 28 29  1  0
 29 30  1  0
 30 31  1  0
 31 32  1  0
 32 33  1  0
 33 34  2  0
 31 35  1  0
 35 36  2  0
 36 37  1  0
 37 38  1  0
 37 39  2  0
 39 40  1  0
 40 41  1  0
 39 42  1  0
 42 43  2  0
 29 44  2  0
 45 46  1  0
 22  1  1  0
 44 24  1  0
 14  5  1  0
 33 28  1  0
 43 35  1  0
M  END
>  <IC50>  (75) 
>100

>  <cmpdNO>  (75) 
79

$$$$

     RDKit          2D

 30 33  0  0  0  0  0  0  0  0999 V2000
   -5.5926   -1.2312    0.0000 O   0  0  0  0  0  0  0  0  0  0  0  0
   -6.5789   -0.1011    0.0000 C   0  0  0  0  0  0  0  0  0  0  0  0
   -8.0508   -0.3903    0.0000 C   0  0  0  0  0  0  0  0  0  0  0  0
   -9.0372    0.7398    0.0000 O   0  0  0  0  0  0  0  0  0  0  0  0
   -6.0934    1.3182    0.0000 C   0  0  0  0  0  0  0  0  0  0  0  0
   -7.0798    2.4483    0.0000 O   0  0  0  0  0  0  0  0  0  0  0  0
   -4.6216    1.6074    0.0000 C   0  0  0  0  0  0  0  0  0  0  0  0
   -4.1361    3.0266    0.0000 O   0  0  0  0  0  0  0  0  0  0  0  0
   -3.6352    0.4773    0.0000 C   0  0  0  0  0  0  0  0  0  0  0  0
   -2.1633    0.7664    0.0000 O   0  0  0  0  0  0  0  0  0  0  0  0
   -4.1207   -0.9420    0.0000 C   0  0  0  0  0  0  0  0  0  0  0  0
   -3.1343   -2.0721    0.0000 O   0  0  0  0  0  0  0  0  0  0  0  0
   -1.6625   -1.7829    0.0000 C   0  0  0  0  0  0  0  0  0  0  0  0
   -0.6761   -2.9130    0.0000 C   0  0  0  0  0  0  0  0  0  0  0  0
    0.7958   -2.6238    0.0000 C   0  0  0  0  0  0  0  0  0  0  0  0
    1.2813   -1.2045    0.0000 C   0  0  0  0  0  0  0  0  0  0  0  0
    0.2949   -0.0745    0.0000 C   0  0  0  0  0  0  0  0  0  0  0  0
   -1.1770   -0.3636    0.0000 C   0  0  0  0  0  0  0  0  0  0  0  0
    2.7531   -0.9154    0.0000 C   0  0  0  0  0  0  0  0  0  0  0  0
    3.2386    0.5039    0.0000 O   0  0  0  0  0  0  0  0  0  0  0  0
    4.7105    0.7931    0.0000 C   0  0  0  0  0  0  0  0  0  0  0  0
    5.6968   -0.3370    0.0000 C   0  0  0  0  0  0  0  0  0  0  0  0
    7.1687   -0.0478    0.0000 C   0  0  0  0  0  0  0  0  0  0  0  0
    7.6542    1.3714    0.0000 C   0  0  0  0  0  0  0  0  0  0  0  0
    6.6678    2.5015    0.0000 C   0  0  0  0  0  0  0  0  0  0  0  0
    7.1533    3.9208    0.0000 O   0  0  0  0  0  0  0  0  0  0  0  0
    5.1960    2.2123    0.0000 C   0  0  0  0  0  0  0  0  0  0  0  0
    5.2113   -1.7563    0.0000 C   0  0  0  0  0  0  0  0  0  0  0  0
    6.1977   -2.8863    0.0000 O   0  0  0  0  0  0  0  0  0  0  0  0
    3.7395   -2.0454    0.0000 C   0  0  0  0  0  0  0  0  0  0  0  0
  1  2  1  0
  2  3  1  0
  3  4  1  0
  2  5  1  0
  5  6  1  0
  5  7  1  0
  7  8  1  0
  7  9  1  0
  9 10  1  0
  9 11  1  0
 11 12  1  0
 12 13  1  0
 13 14  2  0
 14 15  1  0
 15 16  2  0
 16 17  1  0
 17 18  2  0
 16 19  1  0
 19 20  1  0
 20 21  1  0
 21 22  2  0
 22 23  1  0
 23 24  2  0
 24 25  1  0
 25 26  1  0
 25 27  2  0
 22 28  1  0
 28 29  2  0
 28 30  1  0
 11  1  1  0
 18 13  1  0
 30 19  1  0
 27 21  1  0
M  END
>  <IC50>  (76) 
>100

>  <cmpdNO>  (76) 
80

$$$$

     RDKit          2D

 20 22  0  0  0  0  0  0  0  0999 V2000
   -0.0938   -0.9705    0.0000 O   0  0  0  0  0  0  0  0  0  0  0  0
   -1.5802   -0.7688    0.0000 C   0  0  0  0  0  0  0  0  0  0  0  0
   -2.1487    0.6193    0.0000 C   0  0  0  0  0  0  0  0  0  0  0  0
   -1.2309    1.8057    0.0000 C   0  0  0  0  0  0  0  0  0  0  0  0
   -1.7994    3.1938    0.0000 O   0  0  0  0  0  0  0  0  0  0  0  0
    0.2555    1.6040    0.0000 C   0  0  0  0  0  0  0  0  0  0  0  0
    0.8240    0.2159    0.0000 C   0  0  0  0  0  0  0  0  0  0  0  0
    2.3104    0.0142    0.0000 C   0  0  0  0  0  0  0  0  0  0  0  0
    2.8789   -1.3738    0.0000 C   0  0  0  0  0  0  0  0  0  0  0  0
    4.3653   -1.5755    0.0000 C   0  0  0  0  0  0  0  0  0  0  0  0
    5.2832   -0.3891    0.0000 C   0  0  0  0  0  0  0  0  0  0  0  0
    6.7695   -0.5908    0.0000 O   0  0  0  0  0  0  0  0  0  0  0  0
    4.7146    0.9989    0.0000 C   0  0  0  0  0  0  0  0  0  0  0  0
    3.2282    1.2006    0.0000 C   0  0  0  0  0  0  0  0  0  0  0  0
   -3.6351    0.8210    0.0000 C   0  0  0  0  0  0  0  0  0  0  0  0
   -4.2036    2.2091    0.0000 O   0  0  0  0  0  0  0  0  0  0  0  0
   -4.5530   -0.3654    0.0000 C   0  0  0  0  0  0  0  0  0  0  0  0
   -3.9845   -1.7535    0.0000 C   0  0  0  0  0  0  0  0  0  0  0  0
   -4.9023   -2.9399    0.0000 O   0  0  0  0  0  0  0  0  0  0  0  0
   -2.4981   -1.9552    0.0000 C   0  0  0  0  0  0  0  0  0  0  0  0
  1  2  1  0
  2  3  2  0
  3  4  1  0
  4  5  2  0
  4  6  1  0
  6  7  1  0
  7  8  1  0
  8  9  2  0
  9 10  1  0
 10 11  2  0
 11 12  1  0
 11 13  1  0
 13 14  2  0
  3 15  1  0
 15 16  1  0
 15 17  2  0
 17 18  1  0
 18 19  1  0
 18 20  2  0
  7  1  1  0
 14  8  1  0
 20  2  1  0
M  END
>  <IC50>  (77) 
>100

>  <cmpdNO>  (77) 
81

$$$$

     RDKit          2D

 46 49  0  0  0  0  0  0  0  0999 V2000
    5.0279   -1.1105    0.0000 O   0  0  0  0  0  0  0  0  0  0  0  0
    6.4996   -1.4003    0.0000 C   0  0  0  0  0  0  0  0  0  0  0  0
    6.9845   -2.8198    0.0000 C   0  0  0  0  0  0  0  0  0  0  0  0
    8.4563   -3.1096    0.0000 C   0  0  0  0  0  0  0  0  0  0  0  0
    7.4865   -0.2707    0.0000 C   0  0  0  0  0  0  0  0  0  0  0  0
    8.9582   -0.5605    0.0000 O   0  0  0  0  0  0  0  0  0  0  0  0
    7.0016    1.1488    0.0000 C   0  0  0  0  0  0  0  0  0  0  0  0
    7.9885    2.2785    0.0000 O   0  0  0  0  0  0  0  0  0  0  0  0
    5.5299    1.4386    0.0000 C   0  0  0  0  0  0  0  0  0  0  0  0
    5.0450    2.8581    0.0000 O   0  0  0  0  0  0  0  0  0  0  0  0
    4.5430    0.3090    0.0000 C   0  0  0  0  0  0  0  0  0  0  0  0
    3.0713    0.5988    0.0000 O   0  0  0  0  0  0  0  0  0  0  0  0
    2.0844   -0.5308    0.0000 C   0  0  0  0  0  0  0  0  0  0  0  0
    0.6127   -0.2410    0.0000 O   0  0  0  0  0  0  0  0  0  0  0  0
   -0.3742   -1.3707    0.0000 C   0  0  0  0  0  0  0  0  0  0  0  0
   -1.8459   -1.0808    0.0000 O   0  0  0  0  0  0  0  0  0  0  0  0
   -2.3308    0.3386    0.0000 C   0  0  0  0  0  0  0  0  0  0  0  0
   -3.8025    0.6284    0.0000 C   0  0  0  0  0  0  0  0  0  0  0  0
   -4.2874    2.0479    0.0000 C   0  0  0  0  0  0  0  0  0  0  0  0
   -3.3005    3.1776    0.0000 C   0  0  0  0  0  0  0  0  0  0  0  0
   -1.8288    2.8877    0.0000 C   0  0  0  0  0  0  0  0  0  0  0  0
   -1.3439    1.4683    0.0000 C   0  0  0  0  0  0  0  0  0  0  0  0
    0.1278    1.1785    0.0000 O   0  0  0  0  0  0  0  0  0  0  0  0
   -0.8419    4.0174    0.0000 C   0  0  0  0  0  0  0  0  0  0  0  0
    0.6298    3.7276    0.0000 O   0  0  0  0  0  0  0  0  0  0  0  0
   -1.3268    5.4369    0.0000 C   0  0  0  0  0  0  0  0  0  0  0  0
   -2.7985    5.7267    0.0000 C   0  0  0  0  0  0  0  0  0  0  0  0
   -3.2834    7.1462    0.0000 O   0  0  0  0  0  0  0  0  0  0  0  0
   -3.7854    4.5970    0.0000 C   0  0  0  0  0  0  0  0  0  0  0  0
   -4.7894   -0.5012    0.0000 C   0  0  0  0  0  0  0  0  0  0  0  0
   -6.2611   -0.2114    0.0000 C   0  0  0  0  0  0  0  0  0  0  0  0
   -7.2480   -1.3410    0.0000 C   0  0  0  0  0  0  0  0  0  0  0  0
   -8.7197   -1.0512    0.0000 O   0  0  0  0  0  0  0  0  0  0  0  0
   -6.7631   -2.7605    0.0000 C   0  0  0  0  0  0  0  0  0  0  0  0
   -7.7499   -3.8901    0.0000 O   0  0  0  0  0  0  0  0  0  0  0  0
   -7.2651   -5.3096    0.0000 O   0  0  0  0  0  0  0  0  0  0  0  0
   -5.2913   -3.0503    0.0000 C   0  0  0  0  0  0  0  0  0  0  0  0
   -4.3045   -1.9207    0.0000 C   0  0  0  0  0  0  0  0  0  0  0  0
    0.1107   -2.7901    0.0000 C   0  0  0  0  0  0  0  0  0  0  0  0
   -0.8761   -3.9198    0.0000 O   0  0  0  0  0  0  0  0  0  0  0  0
    1.5825   -3.0800    0.0000 C   0  0  0  0  0  0  0  0  0  0  0  0
    2.0673   -4.4994    0.0000 O   0  0  0  0  0  0  0  0  0  0  0  0
    2.5693   -1.9503    0.0000 C   0  0  0  0  0  0  0  0  0  0  0  0
    4.0410   -2.2401    0.0000 O   0  0  0  0  0  0  0  0  0  0  0  0
    0.0000    9.6462    0.0000 H   0  0  0  0  0  0  0  0  0  0  0  0
   -0.0000    8.1462    0.0000 H   0  0  0  0  0  0  0  0  0  0  0  0
  1  2  1  0
  2  3  1  0
  3  4  1  0
  2  5  1  0
  5  6  1  0
  5  7  1  0
  7  8  1  0
  7  9  1  0
  9 10  1  0
  9 11  1  0
 11 12  1  0
 12 13  1  0
 13 14  1  0
 14 15  1  0
 15 16  1  0
 16 17  1  0
 17 18  2  0
 18 19  1  0
 19 20  1  0
 20 21  2  0
 21 22  1  0
 22 23  2  0
 21 24  1  0
 24 25  1  0
 24 26  2  0
 26 27  1  0
 27 28  1  0
 27 29  2  0
 18 30  1  0
 30 31  2  0
 31 32  1  0
 32 33  1  0
 32 34  2  0
 34 35  1  0
 35 36  1  0
 34 37  1  0
 37 38  2  0
 15 39  1  0
 39 40  1  0
 39 41  1  0
 41 42  1  0
 41 43  1  0
 43 44  1  0
 45 46  1  0
 11  1  1  0
 43 13  1  0
 22 17  1  0
 38 30  1  0
 29 20  1  0
M  END
>  <IC50>  (78) 
52.2

>  <cmpdNO>  (78) 
82

$$$$

     RDKit          2D

 22 24  0  0  0  0  0  0  0  0999 V2000
   -0.0553    0.9818    0.0000 O   0  0  0  0  0  0  0  0  0  0  0  0
    1.4070    0.6474    0.0000 C   0  0  0  0  0  0  0  0  0  0  0  0
    1.8486   -0.7861    0.0000 C   0  0  0  0  0  0  0  0  0  0  0  0
    0.8279   -1.8853    0.0000 C   0  0  0  0  0  0  0  0  0  0  0  0
    1.2694   -3.3188    0.0000 O   0  0  0  0  0  0  0  0  0  0  0  0
   -0.6344   -1.5509    0.0000 C   0  0  0  0  0  0  0  0  0  0  0  0
   -1.6551   -2.6501    0.0000 O   0  0  0  0  0  0  0  0  0  0  0  0
   -1.0760   -0.1174    0.0000 C   0  0  0  0  0  0  0  0  0  0  0  0
   -2.5382    0.2169    0.0000 C   0  0  0  0  0  0  0  0  0  0  0  0
   -2.9798    1.6505    0.0000 C   0  0  0  0  0  0  0  0  0  0  0  0
   -4.4421    1.9848    0.0000 C   0  0  0  0  0  0  0  0  0  0  0  0
   -5.4628    0.8857    0.0000 C   0  0  0  0  0  0  0  0  0  0  0  0
   -6.9250    1.2200    0.0000 O   0  0  0  0  0  0  0  0  0  0  0  0
   -5.0212   -0.5479    0.0000 C   0  0  0  0  0  0  0  0  0  0  0  0
   -3.5589   -0.8822    0.0000 C   0  0  0  0  0  0  0  0  0  0  0  0
    3.3108   -1.1205    0.0000 C   0  0  0  0  0  0  0  0  0  0  0  0
    3.7524   -2.5540    0.0000 O   0  0  0  0  0  0  0  0  0  0  0  0
    4.3315   -0.0213    0.0000 C   0  0  0  0  0  0  0  0  0  0  0  0
    3.8899    1.4123    0.0000 C   0  0  0  0  0  0  0  0  0  0  0  0
    4.9106    2.5114    0.0000 O   0  0  0  0  0  0  0  0  0  0  0  0
    6.3729    2.1771    0.0000 C   0  0  0  0  0  0  0  0  0  0  0  0
    2.4277    1.7466    0.0000 C   0  0  0  0  0  0  0  0  0  0  0  0
  1  2  1  0
  2  3  2  0
  3  4  1  0
  4  5  2  0
  4  6  1  0
  6  7  1  0
  6  8  1  0
  8  9  1  0
  9 10  2  0
 10 11  1  0
 11 12  2  0
 12 13  1  0
 12 14  1  0
 14 15  2  0
  3 16  1  0
 16 17  1  0
 16 18  2  0
 18 19  1  0
 19 20  1  0
 20 21  1  0
 19 22  2  0
  8  1  1  0
 15  9  1  0
 22  2  1  0
M  END
>  <IC50>  (79) 
51.5

>  <cmpdNO>  (79) 
83

$$$$

     RDKit          2D

 23 25  0  0  0  0  0  0  0  0999 V2000
    0.6040    1.0581    0.0000 O   0  0  0  0  0  0  0  0  0  0  0  0
    2.0904    0.8569    0.0000 C   0  0  0  0  0  0  0  0  0  0  0  0
    2.6593   -0.5311    0.0000 C   0  0  0  0  0  0  0  0  0  0  0  0
    1.7418   -1.7177    0.0000 C   0  0  0  0  0  0  0  0  0  0  0  0
    2.3107   -3.1056    0.0000 O   0  0  0  0  0  0  0  0  0  0  0  0
    0.2554   -1.5165    0.0000 C   0  0  0  0  0  0  0  0  0  0  0  0
   -0.6622   -2.7031    0.0000 O   0  0  0  0  0  0  0  0  0  0  0  0
   -0.3136   -0.1285    0.0000 C   0  0  0  0  0  0  0  0  0  0  0  0
   -1.8000    0.0727    0.0000 C   0  0  0  0  0  0  0  0  0  0  0  0
   -2.3689    1.4607    0.0000 C   0  0  0  0  0  0  0  0  0  0  0  0
   -3.8553    1.6619    0.0000 C   0  0  0  0  0  0  0  0  0  0  0  0
   -4.4243    3.0499    0.0000 O   0  0  0  0  0  0  0  0  0  0  0  0
   -4.7729    0.4753    0.0000 C   0  0  0  0  0  0  0  0  0  0  0  0
   -6.2593    0.6765    0.0000 O   0  0  0  0  0  0  0  0  0  0  0  0
   -4.2040   -0.9127    0.0000 C   0  0  0  0  0  0  0  0  0  0  0  0
   -5.1215   -2.0993    0.0000 O   0  0  0  0  0  0  0  0  0  0  0  0
   -2.7175   -1.1139    0.0000 C   0  0  0  0  0  0  0  0  0  0  0  0
    4.1457   -0.7323    0.0000 C   0  0  0  0  0  0  0  0  0  0  0  0
    4.7147   -2.1203    0.0000 O   0  0  0  0  0  0  0  0  0  0  0  0
    5.0633    0.4543    0.0000 C   0  0  0  0  0  0  0  0  0  0  0  0
    4.4944    1.8423    0.0000 C   0  0  0  0  0  0  0  0  0  0  0  0
    5.4119    3.0289    0.0000 O   0  0  0  0  0  0  0  0  0  0  0  0
    3.0079    2.0435    0.0000 C   0  0  0  0  0  0  0  0  0  0  0  0
  1  2  1  0
  2  3  2  0
  3  4  1  0
  4  5  2  0
  4  6  1  0
  6  7  1  0
  6  8  1  0
  8  9  1  0
  9 10  2  0
 10 11  1  0
 11 12  1  0
 11 13  2  0
 13 14  1  0
 13 15  1  0
 15 16  1  0
 15 17  2  0
  3 18  1  0
 18 19  1  0
 18 20  2  0
 20 21  1  0
 21 22  1  0
 21 23  2  0
  8  1  1  0
 17  9  1  0
 23  2  1  0
M  END
>  <IC50>  (80) 
82.6

>  <cmpdNO>  (80) 
84

$$$$

     RDKit          2D

 22 24  0  0  0  0  0  0  0  0999 V2000
   -0.7448   -2.8422    0.0000 O   0  0  0  0  0  0  0  0  0  0  0  0
    0.1083   -1.6084    0.0000 C   0  0  0  0  0  0  0  0  0  0  0  0
   -0.5337   -0.2527    0.0000 C   0  0  0  0  0  0  0  0  0  0  0  0
    0.3194    0.9811    0.0000 C   0  0  0  0  0  0  0  0  0  0  0  0
    1.8145    0.8592    0.0000 C   0  0  0  0  0  0  0  0  0  0  0  0
    2.4564   -0.4965    0.0000 C   0  0  0  0  0  0  0  0  0  0  0  0
    1.6033   -1.7303    0.0000 C   0  0  0  0  0  0  0  0  0  0  0  0
    2.2453   -3.0860    0.0000 O   0  0  0  0  0  0  0  0  0  0  0  0
    3.9514   -0.6184    0.0000 C   0  0  0  0  0  0  0  0  0  0  0  0
    4.5934   -1.9741    0.0000 O   0  0  0  0  0  0  0  0  0  0  0  0
    4.8045    0.6154    0.0000 C   0  0  0  0  0  0  0  0  0  0  0  0
    4.1626    1.9711    0.0000 C   0  0  0  0  0  0  0  0  0  0  0  0
    5.0157    3.2049    0.0000 O   0  0  0  0  0  0  0  0  0  0  0  0
    2.6676    2.0930    0.0000 C   0  0  0  0  0  0  0  0  0  0  0  0
   -2.0287   -0.1308    0.0000 C   0  0  0  0  0  0  0  0  0  0  0  0
   -2.6707    1.2249    0.0000 C   0  0  0  0  0  0  0  0  0  0  0  0
   -4.1657    1.3468    0.0000 C   0  0  0  0  0  0  0  0  0  0  0  0
   -4.8076    2.7025    0.0000 O   0  0  0  0  0  0  0  0  0  0  0  0
   -5.0188    0.1130    0.0000 C   0  0  0  0  0  0  0  0  0  0  0  0
   -6.5138    0.2349    0.0000 O   0  0  0  0  0  0  0  0  0  0  0  0
   -4.3768   -1.2427    0.0000 C   0  0  0  0  0  0  0  0  0  0  0  0
   -2.8818   -1.3646    0.0000 C   0  0  0  0  0  0  0  0  0  0  0  0
  1  2  1  0
  2  3  2  0
  3  4  1  0
  4  5  1  0
  5  6  2  0
  6  7  1  0
  7  8  2  0
  6  9  1  0
  9 10  1  0
  9 11  2  0
 11 12  1  0
 12 13  1  0
 12 14  2  0
  3 15  1  0
 15 16  2  0
 16 17  1  0
 17 18  1  0
 17 19  2  0
 19 20  1  0
 19 21  1  0
 21 22  2  0
  7  2  1  0
 22 15  1  0
 14  5  1  0
M  END
>  <IC50>  (81) 
58.4

>  <cmpdNO>  (81) 
85

$$$$

     RDKit          2D

 21 23  0  0  0  0  0  0  0  0999 V2000
    0.1672    1.1008    0.0000 O   0  0  0  0  0  0  0  0  0  0  0  0
    1.6502    0.8756    0.0000 C   0  0  0  0  0  0  0  0  0  0  0  0
    2.1966   -0.5213    0.0000 C   0  0  0  0  0  0  0  0  0  0  0  0
    1.2601   -1.6930    0.0000 C   0  0  0  0  0  0  0  0  0  0  0  0
    1.8066   -3.0899    0.0000 O   0  0  0  0  0  0  0  0  0  0  0  0
   -0.2229   -1.4678    0.0000 C   0  0  0  0  0  0  0  0  0  0  0  0
   -1.1594   -2.6395    0.0000 O   0  0  0  0  0  0  0  0  0  0  0  0
   -0.7694   -0.0709    0.0000 C   0  0  0  0  0  0  0  0  0  0  0  0
   -2.2524    0.1543    0.0000 C   0  0  0  0  0  0  0  0  0  0  0  0
   -2.7988    1.5512    0.0000 C   0  0  0  0  0  0  0  0  0  0  0  0
   -4.2818    1.7764    0.0000 C   0  0  0  0  0  0  0  0  0  0  0  0
   -5.2184    0.6047    0.0000 C   0  0  0  0  0  0  0  0  0  0  0  0
   -6.7014    0.8299    0.0000 O   0  0  0  0  0  0  0  0  0  0  0  0
   -4.6719   -0.7922    0.0000 C   0  0  0  0  0  0  0  0  0  0  0  0
   -3.1889   -1.0174    0.0000 C   0  0  0  0  0  0  0  0  0  0  0  0
    3.6796   -0.7465    0.0000 C   0  0  0  0  0  0  0  0  0  0  0  0
    4.2261   -2.1434    0.0000 O   0  0  0  0  0  0  0  0  0  0  0  0
    4.6162    0.4252    0.0000 C   0  0  0  0  0  0  0  0  0  0  0  0
    4.0697    1.8221    0.0000 C   0  0  0  0  0  0  0  0  0  0  0  0
    5.0062    2.9939    0.0000 O   0  0  0  0  0  0  0  0  0  0  0  0
    2.5867    2.0474    0.0000 C   0  0  0  0  0  0  0  0  0  0  0  0
  1  2  1  0
  2  3  2  0
  3  4  1  0
  4  5  2  0
  4  6  1  0
  6  7  1  0
  6  8  2  0
  8  9  1  0
  9 10  2  0
 10 11  1  0
 11 12  2  0
 12 13  1  0
 12 14  1  0
 14 15  2  0
  3 16  1  0
 16 17  1  0
 16 18  2  0
 18 19  1  0
 19 20  1  0
 19 21  2  0
  8  1  1  0
 15  9  1  0
 21  2  1  0
M  END
>  <IC50>  (82) 
58.6

>  <cmpdNO>  (82) 
86

$$$$

     RDKit          2D

 19 21  0  0  0  0  0  0  0  0999 V2000
    3.7869   -2.2815    0.0000 O   0  0  0  0  0  0  0  0  0  0  0  0
    3.2562   -0.8785    0.0000 C   0  0  0  0  0  0  0  0  0  0  0  0
    1.7758   -0.6366    0.0000 C   0  0  0  0  0  0  0  0  0  0  0  0
    1.2452    0.7664    0.0000 C   0  0  0  0  0  0  0  0  0  0  0  0
   -0.2352    1.0083    0.0000 C   0  0  0  0  0  0  0  0  0  0  0  0
   -1.1849   -0.1527    0.0000 C   0  0  0  0  0  0  0  0  0  0  0  0
   -0.6542   -1.5557    0.0000 C   0  0  0  0  0  0  0  0  0  0  0  0
    0.8261   -1.7977    0.0000 C   0  0  0  0  0  0  0  0  0  0  0  0
    1.3568   -3.2007    0.0000 O   0  0  0  0  0  0  0  0  0  0  0  0
   -2.6652    0.0892    0.0000 C   0  0  0  0  0  0  0  0  0  0  0  0
   -3.1959    1.4922    0.0000 C   0  0  0  0  0  0  0  0  0  0  0  0
   -4.6763    1.7341    0.0000 C   0  0  0  0  0  0  0  0  0  0  0  0
   -5.6260    0.5730    0.0000 C   0  0  0  0  0  0  0  0  0  0  0  0
   -5.0953   -0.8300    0.0000 C   0  0  0  0  0  0  0  0  0  0  0  0
   -3.6149   -1.0719    0.0000 C   0  0  0  0  0  0  0  0  0  0  0  0
    2.1949    1.9275    0.0000 C   0  0  0  0  0  0  0  0  0  0  0  0
    3.6752    1.6855    0.0000 C   0  0  0  0  0  0  0  0  0  0  0  0
    4.6249    2.8466    0.0000 O   0  0  0  0  0  0  0  0  0  0  0  0
    4.2059    0.2825    0.0000 C   0  0  0  0  0  0  0  0  0  0  0  0
  1  2  1  0
  2  3  2  0
  3  4  1  0
  4  5  1  0
  5  6  1  0
  6  7  2  0
  7  8  1  0
  8  9  2  0
  6 10  1  0
 10 11  2  0
 11 12  1  0
 12 13  2  0
 13 14  1  0
 14 15  2  0
  4 16  2  0
 16 17  1  0
 17 18  1  0
 17 19  2  0
 19  2  1  0
  8  3  1  0
 15 10  1  0
M  END
>  <IC50>  (83) 
45.7

>  <cmpdNO>  (83) 
87

$$$$

     RDKit          2D

 31 34  0  0  0  0  0  0  0  0999 V2000
   -3.5362   -0.6160    0.0000 O   0  0  0  0  0  0  0  0  0  0  0  0
   -2.0801   -0.2557    0.0000 C   0  0  0  0  0  0  0  0  0  0  0  0
   -1.0401   -1.3366    0.0000 C   0  0  0  0  0  0  0  0  0  0  0  0
    0.4160   -0.9763    0.0000 O   0  0  0  0  0  0  0  0  0  0  0  0
   -1.4561   -2.7777    0.0000 C   0  0  0  0  0  0  0  0  0  0  0  0
   -0.4160   -3.8586    0.0000 O   0  0  0  0  0  0  0  0  0  0  0  0
   -2.9122   -3.1380    0.0000 C   0  0  0  0  0  0  0  0  0  0  0  0
   -3.3282   -4.5791    0.0000 O   0  0  0  0  0  0  0  0  0  0  0  0
   -3.9522   -2.0571    0.0000 C   0  0  0  0  0  0  0  0  0  0  0  0
   -5.4083   -2.4174    0.0000 C   0  0  0  0  0  0  0  0  0  0  0  0
   -6.4484   -1.3366    0.0000 O   0  0  0  0  0  0  0  0  0  0  0  0
   -1.6641    1.1855    0.0000 C   0  0  0  0  0  0  0  0  0  0  0  0
   -0.2080    1.5458    0.0000 C   0  0  0  0  0  0  0  0  0  0  0  0
    0.8321    0.4649    0.0000 O   0  0  0  0  0  0  0  0  0  0  0  0
    2.2881    0.8252    0.0000 C   0  0  0  0  0  0  0  0  0  0  0  0
    2.7042    2.2663    0.0000 C   0  0  0  0  0  0  0  0  0  0  0  0
    1.6641    3.3472    0.0000 C   0  0  0  0  0  0  0  0  0  0  0  0
    2.0801    4.7883    0.0000 O   0  0  0  0  0  0  0  0  0  0  0  0
    0.2080    2.9869    0.0000 C   0  0  0  0  0  0  0  0  0  0  0  0
   -0.8321    4.0678    0.0000 C   0  0  0  0  0  0  0  0  0  0  0  0
   -0.4160    5.5089    0.0000 O   0  0  0  0  0  0  0  0  0  0  0  0
   -2.2881    3.7075    0.0000 C   0  0  0  0  0  0  0  0  0  0  0  0
   -2.7042    2.2663    0.0000 C   0  0  0  0  0  0  0  0  0  0  0  0
   -4.1603    1.9060    0.0000 O   0  0  0  0  0  0  0  0  0  0  0  0
    3.3282   -0.2557    0.0000 C   0  0  0  0  0  0  0  0  0  0  0  0
    2.9122   -1.6968    0.0000 C   0  0  0  0  0  0  0  0  0  0  0  0
    3.9522   -2.7777    0.0000 C   0  0  0  0  0  0  0  0  0  0  0  0
    5.4083   -2.4174    0.0000 C   0  0  0  0  0  0  0  0  0  0  0  0
    6.4484   -3.4983    0.0000 O   0  0  0  0  0  0  0  0  0  0  0  0
    5.8244   -0.9763    0.0000 C   0  0  0  0  0  0  0  0  0  0  0  0
    4.7843    0.1046    0.0000 C   0  0  0  0  0  0  0  0  0  0  0  0
  1  2  1  0
  2  3  1  0
  3  4  1  0
  3  5  1  0
  5  6  1  0
  5  7  1  0
  7  8  1  0
  7  9  1  0
  9 10  1  0
 10 11  1  0
  2 12  1  0
 12 13  2  0
 13 14  1  0
 14 15  1  0
 15 16  2  0
 16 17  1  0
 17 18  2  0
 17 19  1  0
 19 20  2  0
 20 21  1  0
 20 22  1  0
 22 23  2  0
 23 24  1  0
 15 25  1  0
 25 26  2  0
 26 27  1  0
 27 28  2  0
 28 29  1  0
 28 30  1  0
 30 31  2  0
  9  1  1  0
 23 12  1  0
 31 25  1  0
 19 13  1  0
M  END
>  <IC50>  (84) 
46.5

>  <cmpdNO>  (84) 
88

$$$$

     RDKit          2D

 32 35  0  0  0  0  0  0  0  0999 V2000
   -5.4032   -0.4456    0.0000 O   0  0  0  0  0  0  0  0  0  0  0  0
   -5.9479    0.9520    0.0000 C   0  0  0  0  0  0  0  0  0  0  0  0
   -7.4306    1.1790    0.0000 C   0  0  0  0  0  0  0  0  0  0  0  0
   -7.9753    2.5766    0.0000 O   0  0  0  0  0  0  0  0  0  0  0  0
   -5.0099    2.1225    0.0000 C   0  0  0  0  0  0  0  0  0  0  0  0
   -5.5546    3.5201    0.0000 O   0  0  0  0  0  0  0  0  0  0  0  0
   -3.5272    1.8954    0.0000 C   0  0  0  0  0  0  0  0  0  0  0  0
   -2.5891    3.0660    0.0000 O   0  0  0  0  0  0  0  0  0  0  0  0
   -2.9824    0.4978    0.0000 C   0  0  0  0  0  0  0  0  0  0  0  0
   -1.4997    0.2707    0.0000 O   0  0  0  0  0  0  0  0  0  0  0  0
   -3.9205   -0.6727    0.0000 C   0  0  0  0  0  0  0  0  0  0  0  0
   -3.3757   -2.0703    0.0000 O   0  0  0  0  0  0  0  0  0  0  0  0
   -1.8930   -2.2974    0.0000 C   0  0  0  0  0  0  0  0  0  0  0  0
   -1.3483   -3.6950    0.0000 C   0  0  0  0  0  0  0  0  0  0  0  0
    0.1344   -3.9221    0.0000 C   0  0  0  0  0  0  0  0  0  0  0  0
    0.6791   -5.3197    0.0000 O   0  0  0  0  0  0  0  0  0  0  0  0
    1.0724   -2.7515    0.0000 C   0  0  0  0  0  0  0  0  0  0  0  0
    0.5277   -1.3539    0.0000 C   0  0  0  0  0  0  0  0  0  0  0  0
    1.4657   -0.1834    0.0000 O   0  0  0  0  0  0  0  0  0  0  0  0
    2.9484   -0.4105    0.0000 C   0  0  0  0  0  0  0  0  0  0  0  0
    3.4931   -1.8081    0.0000 C   0  0  0  0  0  0  0  0  0  0  0  0
    2.5551   -2.9786    0.0000 C   0  0  0  0  0  0  0  0  0  0  0  0
    3.0998   -4.3762    0.0000 O   0  0  0  0  0  0  0  0  0  0  0  0
    3.8864    0.7601    0.0000 C   0  0  0  0  0  0  0  0  0  0  0  0
    5.3691    0.5330    0.0000 C   0  0  0  0  0  0  0  0  0  0  0  0
    6.3071    1.7035    0.0000 C   0  0  0  0  0  0  0  0  0  0  0  0
    7.7898    1.4765    0.0000 O   0  0  0  0  0  0  0  0  0  0  0  0
    5.7624    3.1011    0.0000 C   0  0  0  0  0  0  0  0  0  0  0  0
    6.7004    4.2717    0.0000 O   0  0  0  0  0  0  0  0  0  0  0  0
    4.2797    3.3282    0.0000 C   0  0  0  0  0  0  0  0  0  0  0  0
    3.3417    2.1577    0.0000 C   0  0  0  0  0  0  0  0  0  0  0  0
   -0.9550   -1.1269    0.0000 C   0  0  0  0  0  0  0  0  0  0  0  0
  1  2  1  0
  2  3  1  0
  3  4  1  0
  2  5  1  0
  5  6  1  0
  5  7  1  0
  7  8  1  0
  7  9  1  0
  9 10  1  0
  9 11  1  0
 11 12  1  0
 12 13  1  0
 13 14  2  0
 14 15  1  0
 15 16  1  0
 15 17  2  0
 17 18  1  0
 18 19  1  0
 19 20  1  0
 20 21  1  0
 21 22  1  0
 22 23  2  0
 20 24  1  0
 24 25  2  0
 25 26  1  0
 26 27  1  0
 26 28  2  0
 28 29  1  0
 28 30  1  0
 30 31  2  0
 18 32  2  0
 11  1  1  0
 32 13  1  0
 22 17  1  0
 31 24  1  0
M  END
>  <IC50>  (85) 
47.4

>  <cmpdNO>  (85) 
89

$$$$

     RDKit          2D

 21 23  0  0  0  0  0  0  0  0999 V2000
    0.1899   -0.9634    0.0000 O   0  0  0  0  0  0  0  0  0  0  0  0
   -1.2956   -0.7559    0.0000 C   0  0  0  0  0  0  0  0  0  0  0  0
   -1.8587    0.6345    0.0000 C   0  0  0  0  0  0  0  0  0  0  0  0
   -3.3442    0.8420    0.0000 C   0  0  0  0  0  0  0  0  0  0  0  0
   -3.9072    2.2324    0.0000 O   0  0  0  0  0  0  0  0  0  0  0  0
   -4.2668   -0.3407    0.0000 C   0  0  0  0  0  0  0  0  0  0  0  0
   -5.7523   -0.1331    0.0000 O   0  0  0  0  0  0  0  0  0  0  0  0
   -3.7038   -1.7310    0.0000 C   0  0  0  0  0  0  0  0  0  0  0  0
   -4.6263   -2.9138    0.0000 O   0  0  0  0  0  0  0  0  0  0  0  0
   -2.2182   -1.9386    0.0000 C   0  0  0  0  0  0  0  0  0  0  0  0
   -0.9361    1.8172    0.0000 C   0  0  0  0  0  0  0  0  0  0  0  0
   -1.4991    3.2075    0.0000 O   0  0  0  0  0  0  0  0  0  0  0  0
    0.5495    1.6096    0.0000 C   0  0  0  0  0  0  0  0  0  0  0  0
    1.1125    0.2193    0.0000 C   0  0  0  0  0  0  0  0  0  0  0  0
    2.5980    0.0117    0.0000 C   0  0  0  0  0  0  0  0  0  0  0  0
    3.1611   -1.3786    0.0000 C   0  0  0  0  0  0  0  0  0  0  0  0
    4.6466   -1.5862    0.0000 C   0  0  0  0  0  0  0  0  0  0  0  0
    5.5692   -0.4034    0.0000 C   0  0  0  0  0  0  0  0  0  0  0  0
    7.0548   -0.6110    0.0000 O   0  0  0  0  0  0  0  0  0  0  0  0
    5.0062    0.9869    0.0000 C   0  0  0  0  0  0  0  0  0  0  0  0
    3.5206    1.1945    0.0000 C   0  0  0  0  0  0  0  0  0  0  0  0
  1  2  1  0
  2  3  2  0
  3  4  1  0
  4  5  1  0
  4  6  2  0
  6  7  1  0
  6  8  1  0
  8  9  1  0
  8 10  2  0
  3 11  1  0
 11 12  2  0
 11 13  1  0
 13 14  2  0
 14 15  1  0
 15 16  2  0
 16 17  1  0
 17 18  2  0
 18 19  1  0
 18 20  1  0
 20 21  2  0
 14  1  1  0
 21 15  1  0
 10  2  1  0
M  END
>  <IC50>  (86) 
50.6

>  <cmpdNO>  (86) 
90

$$$$

     RDKit          2D

 21 21  0  0  0  0  0  0  0  0999 V2000
   -4.2289   -0.3701    0.0000 S   0  0  0  0  0  0  0  0  0  0  0  0
   -3.5417   -1.7034    0.0000 O   0  0  0  0  0  0  0  0  0  0  0  0
   -4.9161    0.9632    0.0000 O   0  0  0  0  0  0  0  0  0  0  0  0
   -2.8955    0.3171    0.0000 C   0  0  0  0  0  0  0  0  0  0  0  0
   -2.8240    1.8154    0.0000 O   0  0  0  0  0  0  0  0  0  0  0  0
   -1.6338   -0.4940    0.0000 N   0  0  0  0  0  0  0  0  0  0  0  0
   -0.3004    0.1931    0.0000 C   0  0  0  0  0  0  0  0  0  0  0  0
   -0.2289    1.6914    0.0000 C   0  0  0  0  0  0  0  0  0  0  0  0
   -1.4906    2.5025    0.0000 N   0  0  0  0  0  0  0  0  0  0  0  0
    1.1045    2.3786    0.0000 C   0  0  0  0  0  0  0  0  0  0  0  0
    2.3663    1.5675    0.0000 C   0  0  0  0  0  0  0  0  0  0  0  0
    2.2947    0.0692    0.0000 C   0  0  0  0  0  0  0  0  0  0  0  0
    0.9614   -0.6180    0.0000 C   0  0  0  0  0  0  0  0  0  0  0  0
    0.8898   -2.1163    0.0000 O   0  0  0  0  0  0  0  0  0  0  0  0
    2.1516   -2.9274    0.0000 C   0  0  0  0  0  0  0  0  0  0  0  0
    2.0800   -4.4257    0.0000 C   0  0  0  0  0  0  0  0  0  0  0  0
    3.3418   -5.2368    0.0000 C   0  0  0  0  0  0  0  0  0  0  0  0
    3.6996    2.2546    0.0000 C   0  0  0  0  0  0  0  0  0  0  0  0
    4.9614    1.4435    0.0000 O   0  0  0  0  0  0  0  0  0  0  0  0
    3.7712    3.7529    0.0000 O   0  0  0  0  0  0  0  0  0  0  0  0
   -5.5622   -1.0573    0.0000 C   0  0  0  0  0  0  0  0  0  0  0  0
  1  2  2  0
  1  3  2  0
  1  4  1  0
  4  5  2  0
  4  6  1  0
  6  7  1  0
  7  8  1  0
  8  9  1  0
  8 10  1  0
 10 11  1  0
 11 12  2  0
 12 13  1  0
 13 14  1  0
 14 15  1  0
 15 16  1  0
 16 17  1  0
 11 18  1  0
 18 19  1  0
 18 20  2  0
  1 21  1  0
 13  7  1  0
M  END
>  <IC50>  (87) 
25

>  <cmpdNO>  (87) 
91

$$$$

     RDKit          2D

 14 15  0  0  0  0  0  0  0  0999 V2000
   -0.5251    1.7681    0.0000 S   0  0  0  0  0  0  0  0  0  0  0  0
   -2.0158    1.6013    0.0000 C   0  0  0  0  0  0  0  0  0  0  0  0
   -2.3178    0.1320    0.0000 C   0  0  0  0  0  0  0  0  0  0  0  0
   -1.0138   -0.6092    0.0000 N   0  0  0  0  0  0  0  0  0  0  0  0
    0.0942    0.4019    0.0000 C   0  0  0  0  0  0  0  0  0  0  0  0
    1.5635    0.0999    0.0000 C   0  0  0  0  0  0  0  0  0  0  0  0
    2.0365   -1.3236    0.0000 C   0  0  0  0  0  0  0  0  0  0  0  0
    3.5058   -1.6256    0.0000 C   0  0  0  0  0  0  0  0  0  0  0  0
    4.5020   -0.5042    0.0000 C   0  0  0  0  0  0  0  0  0  0  0  0
    4.0290    0.9192    0.0000 C   0  0  0  0  0  0  0  0  0  0  0  0
    2.5597    1.2213    0.0000 C   0  0  0  0  0  0  0  0  0  0  0  0
   -3.6840   -0.4872    0.0000 C   0  0  0  0  0  0  0  0  0  0  0  0
   -4.9034    0.3863    0.0000 O   0  0  0  0  0  0  0  0  0  0  0  0
   -3.8308   -1.9800    0.0000 O   0  0  0  0  0  0  0  0  0  0  0  0
  1  2  1  0
  2  3  1  0
  3  4  1  0
  4  5  1  0
  5  6  1  0
  6  7  2  0
  7  8  1  0
  8  9  2  0
  9 10  1  0
 10 11  2  0
  3 12  1  0
 12 13  1  0
 12 14  2  0
  5  1  1  0
 11  6  1  0
M  END
>  <IC50>  (88) 
21.3

>  <cmpdNO>  (88) 
92

$$$$

     RDKit          2D

 15 16  0  0  0  0  0  0  0  0999 V2000
   -0.5856    1.6223    0.0000 S   0  0  0  0  0  0  0  0  0  0  0  0
   -2.0826    1.5287    0.0000 C   0  0  0  0  0  0  0  0  0  0  0  0
   -2.4561    0.0759    0.0000 C   0  0  0  0  0  0  0  0  0  0  0  0
   -1.1899   -0.7283    0.0000 N   0  0  0  0  0  0  0  0  0  0  0  0
   -0.0338    0.2275    0.0000 C   0  0  0  0  0  0  0  0  0  0  0  0
    1.4189   -0.1460    0.0000 C   0  0  0  0  0  0  0  0  0  0  0  0
    1.8218   -1.5909    0.0000 C   0  0  0  0  0  0  0  0  0  0  0  0
    3.2746   -1.9644    0.0000 C   0  0  0  0  0  0  0  0  0  0  0  0
    4.3244   -0.8930    0.0000 C   0  0  0  0  0  0  0  0  0  0  0  0
    3.9215    0.5518    0.0000 C   0  0  0  0  0  0  0  0  0  0  0  0
    2.4688    0.9254    0.0000 C   0  0  0  0  0  0  0  0  0  0  0  0
    2.0659    2.3702    0.0000 O   0  0  0  0  0  0  0  0  0  0  0  0
   -3.8510   -0.4758    0.0000 C   0  0  0  0  0  0  0  0  0  0  0  0
   -5.0262    0.4563    0.0000 O   0  0  0  0  0  0  0  0  0  0  0  0
   -4.0706   -1.9597    0.0000 O   0  0  0  0  0  0  0  0  0  0  0  0
  1  2  1  0
  2  3  1  0
  3  4  1  0
  4  5  1  0
  5  6  1  0
  6  7  2  0
  7  8  1  0
  8  9  2  0
  9 10  1  0
 10 11  2  0
 11 12  1  0
  3 13  1  0
 13 14  1  0
 13 15  2  0
  5  1  1  0
 11  6  1  0
M  END
>  <IC50>  (89) 
20.2

>  <cmpdNO>  (89) 
93

$$$$

     RDKit          2D

 16 17  0  0  0  0  0  0  0  0999 V2000
   -1.4766    1.8005    0.0000 S   0  0  0  0  0  0  0  0  0  0  0  0
   -2.9543    1.5425    0.0000 C   0  0  0  0  0  0  0  0  0  0  0  0
   -3.1656    0.0575    0.0000 C   0  0  0  0  0  0  0  0  0  0  0  0
   -1.8185   -0.6024    0.0000 N   0  0  0  0  0  0  0  0  0  0  0  0
   -0.7747    0.4749    0.0000 C   0  0  0  0  0  0  0  0  0  0  0  0
    0.7104    0.2636    0.0000 C   0  0  0  0  0  0  0  0  0  0  0  0
    1.2699   -1.1281    0.0000 C   0  0  0  0  0  0  0  0  0  0  0  0
    2.7550   -1.3394    0.0000 C   0  0  0  0  0  0  0  0  0  0  0  0
    3.6805   -0.1589    0.0000 C   0  0  0  0  0  0  0  0  0  0  0  0
    3.1209    1.2328    0.0000 C   0  0  0  0  0  0  0  0  0  0  0  0
    1.6359    1.4441    0.0000 C   0  0  0  0  0  0  0  0  0  0  0  0
    5.1655   -0.3702    0.0000 C   0  0  0  0  0  0  0  0  0  0  0  0
    6.6506   -0.5815    0.0000 N   0  0  0  0  0  0  0  0  0  0  0  0
   -4.4912   -0.6445    0.0000 C   0  0  0  0  0  0  0  0  0  0  0  0
   -5.7619    0.1525    0.0000 O   0  0  0  0  0  0  0  0  0  0  0  0
   -4.5460   -2.1435    0.0000 O   0  0  0  0  0  0  0  0  0  0  0  0
  1  2  1  0
  2  3  1  0
  3  4  1  0
  4  5  1  0
  5  6  1  0
  6  7  2  0
  7  8  1  0
  8  9  2  0
  9 10  1  0
 10 11  2  0
  9 12  1  0
 12 13  3  0
  3 14  1  0
 14 15  1  0
 14 16  2  0
  5  1  1  0
 11  6  1  0
M  END
>  <IC50>  (90) 
23.4

>  <cmpdNO>  (90) 
94

$$$$

     RDKit          2D

 17 18  0  0  0  0  0  0  0  0999 V2000
   -0.6601    1.3401    0.0000 S   0  0  0  0  0  0  0  0  0  0  0  0
   -2.1583    1.4133    0.0000 C   0  0  0  0  0  0  0  0  0  0  0  0
   -2.6909    0.0110    0.0000 C   0  0  0  0  0  0  0  0  0  0  0  0
   -1.5218   -0.9288    0.0000 N   0  0  0  0  0  0  0  0  0  0  0  0
   -0.2668   -0.1074    0.0000 C   0  0  0  0  0  0  0  0  0  0  0  0
    1.1355   -0.6400    0.0000 C   0  0  0  0  0  0  0  0  0  0  0  0
    1.3754   -2.1206    0.0000 C   0  0  0  0  0  0  0  0  0  0  0  0
    2.7777   -2.6532    0.0000 C   0  0  0  0  0  0  0  0  0  0  0  0
    3.9401   -1.7051    0.0000 C   0  0  0  0  0  0  0  0  0  0  0  0
    3.7001   -0.2244    0.0000 C   0  0  0  0  0  0  0  0  0  0  0  0
    2.2979    0.3082    0.0000 C   0  0  0  0  0  0  0  0  0  0  0  0
    2.0580    1.7889    0.0000 N   0  0  0  0  0  0  0  0  0  0  0  0
    0.6557    2.3214    0.0000 O   0  0  0  0  0  0  0  0  0  0  0  0
    3.2203    2.7370    0.0000 O   0  0  0  0  0  0  0  0  0  0  0  0
   -4.1384   -0.3823    0.0000 C   0  0  0  0  0  0  0  0  0  0  0  0
   -5.2028    0.6745    0.0000 O   0  0  0  0  0  0  0  0  0  0  0  0
   -4.5215   -1.8326    0.0000 O   0  0  0  0  0  0  0  0  0  0  0  0
  1  2  1  0
  2  3  1  0
  3  4  1  0
  4  5  1  0
  5  6  1  0
  6  7  2  0
  7  8  1  0
  8  9  2  0
  9 10  1  0
 10 11  2  0
 11 12  1  0
 12 13  2  0
 12 14  1  0
  3 15  1  0
 15 16  1  0
 15 17  2  0
  5  1  1  0
 11  6  1  0
M  CHG  2  12   1  14  -1
M  END
>  <IC50>  (91) 
22.5

>  <cmpdNO>  (91) 
95

$$$$

     RDKit          2D

 13 14  0  0  0  0  0  0  0  0999 V2000
    0.1766   -1.7386    0.0000 S   0  0  0  0  0  0  0  0  0  0  0  0
    1.6701   -1.5982    0.0000 C   0  0  0  0  0  0  0  0  0  0  0  0
    1.9981   -0.1345    0.0000 C   0  0  0  0  0  0  0  0  0  0  0  0
    0.7074    0.6297    0.0000 N   0  0  0  0  0  0  0  0  0  0  0  0
   -0.4183   -0.3616    0.0000 C   0  0  0  0  0  0  0  0  0  0  0  0
   -1.8820   -0.0336    0.0000 C   0  0  0  0  0  0  0  0  0  0  0  0
   -3.0077   -1.0250    0.0000 O   0  0  0  0  0  0  0  0  0  0  0  0
   -4.2984   -0.2607    0.0000 C   0  0  0  0  0  0  0  0  0  0  0  0
   -3.9704    1.2030    0.0000 C   0  0  0  0  0  0  0  0  0  0  0  0
   -2.4770    1.3433    0.0000 C   0  0  0  0  0  0  0  0  0  0  0  0
    3.3750    0.4605    0.0000 C   0  0  0  0  0  0  0  0  0  0  0  0
    4.5788   -0.4345    0.0000 O   0  0  0  0  0  0  0  0  0  0  0  0
    3.5482    1.9504    0.0000 O   0  0  0  0  0  0  0  0  0  0  0  0
  1  2  1  0
  2  3  1  0
  3  4  1  0
  4  5  1  0
  5  6  1  0
  6  7  1  0
  7  8  1  0
  8  9  2  0
  9 10  1  0
  3 11  1  0
 11 12  1  0
 11 13  2  0
  5  1  1  0
 10  6  2  0
M  END
>  <IC50>  (92) 
43.1

>  <cmpdNO>  (92) 
96

$$$$

     RDKit          2D

  9  9  0  0  0  0  0  0  0  0999 V2000
    3.0000    0.0000    0.0000 O   0  0  0  0  0  0  0  0  0  0  0  0
    1.5000   -0.0000    0.0000 C   0  0  0  0  0  0  0  0  0  0  0  0
    0.7500   -1.2990    0.0000 C   0  0  0  0  0  0  0  0  0  0  0  0
   -0.7500   -1.2990    0.0000 C   0  0  0  0  0  0  0  0  0  0  0  0
   -1.5000   -2.5981    0.0000 O   0  0  0  0  0  0  0  0  0  0  0  0
   -1.5000    0.0000    0.0000 C   0  0  0  0  0  0  0  0  0  0  0  0
   -0.7500    1.2990    0.0000 C   0  0  0  0  0  0  0  0  0  0  0  0
   -1.5000    2.5981    0.0000 O   0  0  0  0  0  0  0  0  0  0  0  0
    0.7500    1.2990    0.0000 C   0  0  0  0  0  0  0  0  0  0  0  0
  1  2  1  0
  2  3  2  0
  3  4  1  0
  4  5  1  0
  4  6  2  0
  6  7  1  0
  7  8  1  0
  7  9  2  0
  9  2  1  0
M  END
>  <IC50>  (93) 
>200

>  <cmpdNO>  (93) 
97

$$$$

     RDKit          2D

 27 30  0  0  0  0  0  0  0  0999 V2000
    1.5000   -0.8660    0.0000 O   0  0  0  0  0  0  0  0  0  0  0  0
    0.7500    0.4330    0.0000 C   0  0  0  0  0  0  0  0  0  0  0  0
    1.5000    1.7321    0.0000 C   0  0  0  0  0  0  0  0  0  0  0  0
    3.0000    1.7321    0.0000 O   0  0  0  0  0  0  0  0  0  0  0  0
    3.7500    0.4330    0.0000 C   0  0  0  0  0  0  0  0  0  0  0  0
    3.0000   -0.8660    0.0000 C   0  0  0  0  0  0  0  0  0  0  0  0
    3.7500   -2.1651    0.0000 C   0  0  0  0  0  0  0  0  0  0  0  0
    3.0000   -3.4641    0.0000 O   0  0  0  0  0  0  0  0  0  0  0  0
    5.2500   -2.1651    0.0000 C   0  0  0  0  0  0  0  0  0  0  0  0
    6.0000   -0.8660    0.0000 C   0  0  0  0  0  0  0  0  0  0  0  0
    7.5000   -0.8660    0.0000 O   0  0  0  0  0  0  0  0  0  0  0  0
    5.2500    0.4330    0.0000 C   0  0  0  0  0  0  0  0  0  0  0  0
    0.7500    3.0311    0.0000 C   0  0  0  0  0  0  0  0  0  0  0  0
    1.5000    4.3301    0.0000 O   0  0  0  0  0  0  0  0  0  0  0  0
   -0.7500    3.0311    0.0000 C   0  0  0  0  0  0  0  0  0  0  0  0
   -1.5000    1.7321    0.0000 C   0  0  0  0  0  0  0  0  0  0  0  0
   -3.0000    1.7321    0.0000 O   0  0  0  0  0  0  0  0  0  0  0  0
   -0.7500    0.4330    0.0000 C   0  0  0  0  0  0  0  0  0  0  0  0
   -1.5000   -0.8660    0.0000 O   0  0  0  0  0  0  0  0  0  0  0  0
   -3.0000   -0.8660    0.0000 C   0  0  0  0  0  0  0  0  0  0  0  0
   -3.7500    0.4330    0.0000 C   0  0  0  0  0  0  0  0  0  0  0  0
   -5.2500    0.4330    0.0000 C   0  0  0  0  0  0  0  0  0  0  0  0
   -6.0000    1.7321    0.0000 O   0  0  0  0  0  0  0  0  0  0  0  0
   -6.0000   -0.8660    0.0000 C   0  0  0  0  0  0  0  0  0  0  0  0
   -5.2500   -2.1651    0.0000 C   0  0  0  0  0  0  0  0  0  0  0  0
   -6.0000   -3.4641    0.0000 O   0  0  0  0  0  0  0  0  0  0  0  0
   -3.7500   -2.1651    0.0000 C   0  0  0  0  0  0  0  0  0  0  0  0
  1  2  1  0
  2  3  2  0
  3  4  1  0
  4  5  1  0
  5  6  2  0
  6  7  1  0
  7  8  1  0
  7  9  2  0
  9 10  1  0
 10 11  1  0
 10 12  2  0
  3 13  1  0
 13 14  1  0
 13 15  2  0
 15 16  1  0
 16 17  1  0
 16 18  2  0
 18 19  1  0
 19 20  1  0
 20 21  2  0
 21 22  1  0
 22 23  1  0
 22 24  2  0
 24 25  1  0
 25 26  1  0
 25 27  2  0
  6  1  1  0
 27 20  1  0
 18  2  1  0
 12  5  1  0
M  END
>  <IC50>  (94) 
>200

>  <cmpdNO>  (94) 
98

$$$$

     RDKit          2D

 36 40  0  0  0  0  0  0  0  0999 V2000
   -0.7276   -0.1818    0.0000 O   0  0  0  0  0  0  0  0  0  0  0  0
   -1.7701    0.8967    0.0000 C   0  0  0  0  0  0  0  0  0  0  0  0
   -1.3574    2.3388    0.0000 C   0  0  0  0  0  0  0  0  0  0  0  0
    0.0979    2.7024    0.0000 O   0  0  0  0  0  0  0  0  0  0  0  0
    1.1404    1.6239    0.0000 C   0  0  0  0  0  0  0  0  0  0  0  0
    0.7276    0.1818    0.0000 C   0  0  0  0  0  0  0  0  0  0  0  0
    1.7701   -0.8967    0.0000 C   0  0  0  0  0  0  0  0  0  0  0  0
    1.3574   -2.3388    0.0000 O   0  0  0  0  0  0  0  0  0  0  0  0
    3.2254   -0.5331    0.0000 C   0  0  0  0  0  0  0  0  0  0  0  0
    3.6382    0.9089    0.0000 C   0  0  0  0  0  0  0  0  0  0  0  0
    5.0934    1.2725    0.0000 O   0  0  0  0  0  0  0  0  0  0  0  0
    6.1359    0.1940    0.0000 C   0  0  0  0  0  0  0  0  0  0  0  0
    5.7232   -1.2481    0.0000 C   0  0  0  0  0  0  0  0  0  0  0  0
    4.2679   -1.6117    0.0000 O   0  0  0  0  0  0  0  0  0  0  0  0
    6.7657   -2.3266    0.0000 C   0  0  0  0  0  0  0  0  0  0  0  0
    8.2210   -1.9630    0.0000 C   0  0  0  0  0  0  0  0  0  0  0  0
    9.2635   -3.0415    0.0000 O   0  0  0  0  0  0  0  0  0  0  0  0
    8.6337   -0.5209    0.0000 C   0  0  0  0  0  0  0  0  0  0  0  0
    7.5912    0.5576    0.0000 C   0  0  0  0  0  0  0  0  0  0  0  0
    8.0040    1.9997    0.0000 O   0  0  0  0  0  0  0  0  0  0  0  0
    2.5957    1.9875    0.0000 C   0  0  0  0  0  0  0  0  0  0  0  0
   -2.3999    3.4173    0.0000 C   0  0  0  0  0  0  0  0  0  0  0  0
   -1.9871    4.8594    0.0000 O   0  0  0  0  0  0  0  0  0  0  0  0
   -3.8551    3.0537    0.0000 C   0  0  0  0  0  0  0  0  0  0  0  0
   -4.2679    1.6117    0.0000 C   0  0  0  0  0  0  0  0  0  0  0  0
   -5.7232    1.2481    0.0000 O   0  0  0  0  0  0  0  0  0  0  0  0
   -3.2254    0.5331    0.0000 C   0  0  0  0  0  0  0  0  0  0  0  0
   -3.6382   -0.9089    0.0000 O   0  0  0  0  0  0  0  0  0  0  0  0
   -5.0934   -1.2725    0.0000 C   0  0  0  0  0  0  0  0  0  0  0  0
   -6.1359   -0.1940    0.0000 C   0  0  0  0  0  0  0  0  0  0  0  0
   -7.5912   -0.5576    0.0000 C   0  0  0  0  0  0  0  0  0  0  0  0
   -8.6337    0.5209    0.0000 O   0  0  0  0  0  0  0  0  0  0  0  0
   -8.0040   -1.9997    0.0000 C   0  0  0  0  0  0  0  0  0  0  0  0
   -6.9615   -3.0782    0.0000 C   0  0  0  0  0  0  0  0  0  0  0  0
   -7.3742   -4.5203    0.0000 O   0  0  0  0  0  0  0  0  0  0  0  0
   -5.5062   -2.7146    0.0000 C   0  0  0  0  0  0  0  0  0  0  0  0
  1  2  1  0
  2  3  2  0
  3  4  1  0
  4  5  1  0
  5  6  2  0
  6  7  1  0
  7  8  1  0
  7  9  2  0
  9 10  1  0
 10 11  1  0
 11 12  1  0
 12 13  2  0
 13 14  1  0
 13 15  1  0
 15 16  2  0
 16 17  1  0
 16 18  1  0
 18 19  2  0
 19 20  1  0
 10 21  2  0
  3 22  1  0
 22 23  1  0
 22 24  2  0
 24 25  1  0
 25 26  1  0
 25 27  2  0
 27 28  1  0
 28 29  1  0
 29 30  2  0
 30 31  1  0
 31 32  1  0
 31 33  2  0
 33 34  1  0
 34 35  1  0
 34 36  2  0
  6  1  1  0
 19 12  1  0
 36 29  1  0
 27  2  1  0
 21  5  1  0
M  END
>  <IC50>  (95) 
41.2

>  <cmpdNO>  (95) 
99

$$$$

     RDKit          2D

 53 60  0  0  0  0  0  0  0  0999 V2000
   -5.3976   -0.0090    0.0000 O   0  0  0  0  0  0  0  0  0  0  0  0
   -6.7906    0.5472    0.0000 C   0  0  0  0  0  0  0  0  0  0  0  0
   -7.0055    2.0317    0.0000 C   0  0  0  0  0  0  0  0  0  0  0  0
   -5.8272    2.9601    0.0000 O   0  0  0  0  0  0  0  0  0  0  0  0
   -4.4342    2.4039    0.0000 C   0  0  0  0  0  0  0  0  0  0  0  0
   -4.2193    0.9193    0.0000 C   0  0  0  0  0  0  0  0  0  0  0  0
   -2.8263    0.3631    0.0000 C   0  0  0  0  0  0  0  0  0  0  0  0
   -2.6114   -1.1214    0.0000 O   0  0  0  0  0  0  0  0  0  0  0  0
   -1.6481    1.2914    0.0000 C   0  0  0  0  0  0  0  0  0  0  0  0
   -1.8629    2.7760    0.0000 C   0  0  0  0  0  0  0  0  0  0  0  0
   -0.6847    3.7043    0.0000 O   0  0  0  0  0  0  0  0  0  0  0  0
    0.7084    3.1481    0.0000 C   0  0  0  0  0  0  0  0  0  0  0  0
    0.9232    1.6635    0.0000 C   0  0  0  0  0  0  0  0  0  0  0  0
   -0.2550    0.7352    0.0000 O   0  0  0  0  0  0  0  0  0  0  0  0
    2.3163    1.1073    0.0000 C   0  0  0  0  0  0  0  0  0  0  0  0
    3.4945    2.0356    0.0000 C   0  0  0  0  0  0  0  0  0  0  0  0
    4.8876    1.4794    0.0000 O   0  0  0  0  0  0  0  0  0  0  0  0
    5.1024   -0.0051    0.0000 C   0  0  0  0  0  0  0  0  0  0  0  0
    6.4955   -0.5613    0.0000 C   0  0  0  0  0  0  0  0  0  0  0  0
    7.6737    0.3670    0.0000 O   0  0  0  0  0  0  0  0  0  0  0  0
    9.0668   -0.1892    0.0000 C   0  0  0  0  0  0  0  0  0  0  0  0
    9.2816   -1.6738    0.0000 C   0  0  0  0  0  0  0  0  0  0  0  0
    8.1034   -2.6021    0.0000 O   0  0  0  0  0  0  0  0  0  0  0  0
    6.7103   -2.0459    0.0000 C   0  0  0  0  0  0  0  0  0  0  0  0
    5.5321   -2.9742    0.0000 C   0  0  0  0  0  0  0  0  0  0  0  0
    5.7469   -4.4587    0.0000 O   0  0  0  0  0  0  0  0  0  0  0  0
    4.1390   -2.4180    0.0000 C   0  0  0  0  0  0  0  0  0  0  0  0
    3.9242   -0.9334    0.0000 C   0  0  0  0  0  0  0  0  0  0  0  0
    2.5311   -0.3772    0.0000 O   0  0  0  0  0  0  0  0  0  0  0  0
   10.6747   -2.2300    0.0000 C   0  0  0  0  0  0  0  0  0  0  0  0
   11.8529   -1.3016    0.0000 C   0  0  0  0  0  0  0  0  0  0  0  0
   13.2460   -1.8579    0.0000 O   0  0  0  0  0  0  0  0  0  0  0  0
   11.6381    0.1829    0.0000 C   0  0  0  0  0  0  0  0  0  0  0  0
   10.2450    0.7391    0.0000 C   0  0  0  0  0  0  0  0  0  0  0  0
   10.0302    2.2236    0.0000 O   0  0  0  0  0  0  0  0  0  0  0  0
    3.2797    3.5202    0.0000 C   0  0  0  0  0  0  0  0  0  0  0  0
    1.8866    4.0764    0.0000 C   0  0  0  0  0  0  0  0  0  0  0  0
    1.6718    5.5609    0.0000 O   0  0  0  0  0  0  0  0  0  0  0  0
   -3.2560    3.3322    0.0000 C   0  0  0  0  0  0  0  0  0  0  0  0
   -8.3985    2.5880    0.0000 C   0  0  0  0  0  0  0  0  0  0  0  0
   -8.6134    4.0725    0.0000 O   0  0  0  0  0  0  0  0  0  0  0  0
   -9.5768    1.6596    0.0000 C   0  0  0  0  0  0  0  0  0  0  0  0
   -9.3619    0.1751    0.0000 C   0  0  0  0  0  0  0  0  0  0  0  0
  -10.5402   -0.7532    0.0000 O   0  0  0  0  0  0  0  0  0  0  0  0
   -7.9689   -0.3811    0.0000 C   0  0  0  0  0  0  0  0  0  0  0  0
   -7.7540   -1.8656    0.0000 C   0  0  0  0  0  0  0  0  0  0  0  0
   -8.9323   -2.7940    0.0000 C   0  0  0  0  0  0  0  0  0  0  0  0
   -8.7174   -4.2785    0.0000 C   0  0  0  0  0  0  0  0  0  0  0  0
   -9.8956   -5.2068    0.0000 O   0  0  0  0  0  0  0  0  0  0  0  0
   -7.3244   -4.8347    0.0000 C   0  0  0  0  0  0  0  0  0  0  0  0
   -6.1461   -3.9064    0.0000 C   0  0  0  0  0  0  0  0  0  0  0  0
   -4.7531   -4.4626    0.0000 O   0  0  0  0  0  0  0  0  0  0  0  0
   -6.3610   -2.4219    0.0000 C   0  0  0  0  0  0  0  0  0  0  0  0
  1  2  1  0
  2  3  2  0
  3  4  1  0
  4  5  1  0
  5  6  2  0
  6  7  1  0
  7  8  1  0
  7  9  2  0
  9 10  1  0
 10 11  1  0
 11 12  1  0
 12 13  2  0
 13 14  1  0
 13 15  1  0
 15 16  2  0
 16 17  1  0
 17 18  1  0
 18 19  2  0
 19 20  1  0
 20 21  1  0
 21 22  2  0
 22 23  1  0
 23 24  1  0
 24 25  2  0
 25 26  1  0
 25 27  1  0
 27 28  2  0
 28 29  1  0
 22 30  1  0
 30 31  2  0
 31 32  1  0
 31 33  1  0
 33 34  2  0
 34 35  1  0
 16 36  1  0
 36 37  2  0
 37 38  1  0
 10 39  2  0
  3 40  1  0
 40 41  1  0
 40 42  2  0
 42 43  1  0
 43 44  1  0
 43 45  2  0
 45 46  1  0
 46 47  2  0
 47 48  1  0
 48 49  1  0
 48 50  2  0
 50 51  1  0
 51 52  1  0
 51 53  2  0
  6  1  1  0
 37 12  1  0
 53 46  1  0
 45  2  1  0
 39  5  1  0
 28 18  1  0
 24 19  1  0
 34 21  1  0
M  END
>  <IC50>  (96) 
20.5

>  <cmpdNO>  (96) 
100

$$$$

     RDKit          2D

 31 33  0  0  0  0  0  0  0  0999 V2000
    0.4963    0.2259    0.0000 O   0  0  0  0  0  0  0  0  0  0  0  0
   -0.3203   -1.0323    0.0000 C   0  0  0  0  0  0  0  0  0  0  0  0
   -1.8182   -0.9543    0.0000 C   0  0  0  0  0  0  0  0  0  0  0  0
   -2.6348   -2.2125    0.0000 C   0  0  0  0  0  0  0  0  0  0  0  0
   -4.1328   -2.1345    0.0000 C   0  0  0  0  0  0  0  0  0  0  0  0
   -4.9494   -3.3927    0.0000 C   0  0  0  0  0  0  0  0  0  0  0  0
   -4.2680   -4.7291    0.0000 C   0  0  0  0  0  0  0  0  0  0  0  0
   -2.7700   -4.8071    0.0000 C   0  0  0  0  0  0  0  0  0  0  0  0
   -1.9534   -3.5488    0.0000 C   0  0  0  0  0  0  0  0  0  0  0  0
    0.3611   -2.3686    0.0000 C   0  0  0  0  0  0  0  0  0  0  0  0
    1.8591   -2.4467    0.0000 C   0  0  0  0  0  0  0  0  0  0  0  0
    2.6757   -1.1884    0.0000 C   0  0  0  0  0  0  0  0  0  0  0  0
    4.1736   -1.2665    0.0000 C   0  0  0  0  0  0  0  0  0  0  0  0
    4.8550   -2.6028    0.0000 C   0  0  0  0  0  0  0  0  0  0  0  0
    4.0384   -3.8611    0.0000 C   0  0  0  0  0  0  0  0  0  0  0  0
    2.5405   -3.7830    0.0000 C   0  0  0  0  0  0  0  0  0  0  0  0
   -0.1851    1.5622    0.0000 C   0  0  0  0  0  0  0  0  0  0  0  0
   -1.6831    1.6403    0.0000 C   0  0  0  0  0  0  0  0  0  0  0  0
   -2.3644    2.9766    0.0000 C   0  0  0  0  0  0  0  0  0  0  0  0
   -1.5479    4.2348    0.0000 C   0  0  0  0  0  0  0  0  0  0  0  0
   -0.0499    4.1568    0.0000 C   0  0  0  0  0  0  0  0  0  0  0  0
    0.7667    5.4150    0.0000 N   0  0  0  0  0  0  0  0  0  0  0  0
    0.6315    2.8205    0.0000 C   0  0  0  0  0  0  0  0  0  0  0  0
    2.1295    2.7424    0.0000 N   0  0  0  0  0  0  0  0  0  0  0  0
    2.8108    1.4061    0.0000 O   0  0  0  0  0  0  0  0  0  0  0  0
    4.3088    1.3281    0.0000 C   0  0  0  0  0  0  0  0  0  0  0  0
    5.1254    2.5863    0.0000 O   0  0  0  0  0  0  0  0  0  0  0  0
    4.9902   -0.0082    0.0000 C   0  0  0  0  0  0  0  0  0  0  0  0
   -3.8624    3.0546    0.0000 C   0  0  0  0  0  0  0  0  0  0  0  0
   -4.6790    1.7964    0.0000 O   0  0  0  0  0  0  0  0  0  0  0  0
   -4.5438    4.3909    0.0000 O   0  0  0  0  0  0  0  0  0  0  0  0
  1  2  1  0
  2  3  1  0
  3  4  1  0
  4  5  2  0
  5  6  1  0
  6  7  2  0
  7  8  1  0
  8  9  2  0
  2 10  1  0
 10 11  1  0
 11 12  2  0
 12 13  1  0
 13 14  2  0
 14 15  1  0
 15 16  2  0
  1 17  1  0
 17 18  1  0
 18 19  2  0
 19 20  1  0
 20 21  1  0
 21 22  1  0
 21 23  1  0
 23 24  1  0
 24 25  1  0
 25 26  1  0
 26 27  2  0
 26 28  1  0
 19 29  1  0
 29 30  1  0
 29 31  2  0
  9  4  1  0
 16 11  1  0
 23 17  1  0
M  END
>  <IC50>  (97) 
>1

>  <cmpdNO>  (97) 
101

$$$$

     RDKit          2D

 35 37  0  0  0  0  0  0  0  0999 V2000
   -0.7672    0.4424    0.0000 O   0  0  0  0  0  0  0  0  0  0  0  0
    0.4277   -0.4644    0.0000 C   0  0  0  0  0  0  0  0  0  0  0  0
    1.8105    0.1170    0.0000 C   0  0  0  0  0  0  0  0  0  0  0  0
    3.0053   -0.7897    0.0000 C   0  0  0  0  0  0  0  0  0  0  0  0
    4.3881   -0.2083    0.0000 C   0  0  0  0  0  0  0  0  0  0  0  0
    5.5830   -1.1151    0.0000 C   0  0  0  0  0  0  0  0  0  0  0  0
    6.9657   -0.5337    0.0000 C   0  0  0  0  0  0  0  0  0  0  0  0
    8.1606   -1.4405    0.0000 C   0  0  0  0  0  0  0  0  0  0  0  0
    7.9727   -2.9287    0.0000 C   0  0  0  0  0  0  0  0  0  0  0  0
    6.5900   -3.5101    0.0000 C   0  0  0  0  0  0  0  0  0  0  0  0
    5.3951   -2.6033    0.0000 C   0  0  0  0  0  0  0  0  0  0  0  0
    0.2399   -1.9526    0.0000 C   0  0  0  0  0  0  0  0  0  0  0  0
   -1.1429   -2.5340    0.0000 C   0  0  0  0  0  0  0  0  0  0  0  0
   -1.3307   -4.0222    0.0000 C   0  0  0  0  0  0  0  0  0  0  0  0
   -2.7135   -4.6036    0.0000 C   0  0  0  0  0  0  0  0  0  0  0  0
   -3.9084   -3.6968    0.0000 C   0  0  0  0  0  0  0  0  0  0  0  0
   -5.2911   -4.2782    0.0000 C   0  0  0  0  0  0  0  0  0  0  0  0
   -5.4790   -5.7664    0.0000 C   0  0  0  0  0  0  0  0  0  0  0  0
   -4.2841   -6.6732    0.0000 C   0  0  0  0  0  0  0  0  0  0  0  0
   -2.9013   -6.0917    0.0000 C   0  0  0  0  0  0  0  0  0  0  0  0
   -0.5793    1.9306    0.0000 C   0  0  0  0  0  0  0  0  0  0  0  0
    0.8034    2.5120    0.0000 C   0  0  0  0  0  0  0  0  0  0  0  0
    0.9913    4.0002    0.0000 C   0  0  0  0  0  0  0  0  0  0  0  0
   -0.2036    4.9070    0.0000 C   0  0  0  0  0  0  0  0  0  0  0  0
   -1.5863    4.3256    0.0000 C   0  0  0  0  0  0  0  0  0  0  0  0
   -2.7812    5.2324    0.0000 N   0  0  0  0  0  0  0  0  0  0  0  0
   -1.7742    2.8374    0.0000 C   0  0  0  0  0  0  0  0  0  0  0  0
   -3.1569    2.2560    0.0000 N   0  0  0  0  0  0  0  0  0  0  0  0
   -4.3518    3.1628    0.0000 O   0  0  0  0  0  0  0  0  0  0  0  0
   -5.7346    2.5814    0.0000 C   0  0  0  0  0  0  0  0  0  0  0  0
   -5.9224    1.0932    0.0000 O   0  0  0  0  0  0  0  0  0  0  0  0
   -6.9294    3.4881    0.0000 C   0  0  0  0  0  0  0  0  0  0  0  0
    2.3740    4.5816    0.0000 C   0  0  0  0  0  0  0  0  0  0  0  0
    3.5689    3.6748    0.0000 O   0  0  0  0  0  0  0  0  0  0  0  0
    2.5619    6.0698    0.0000 O   0  0  0  0  0  0  0  0  0  0  0  0
  1  2  1  0
  2  3  1  0
  3  4  1  0
  4  5  1  0
  5  6  1  0
  6  7  2  0
  7  8  1  0
  8  9  2  0
  9 10  1  0
 10 11  2  0
  2 12  1  0
 12 13  1  0
 13 14  1  0
 14 15  1  0
 15 16  2  0
 16 17  1  0
 17 18  2  0
 18 19  1  0
 19 20  2  0
  1 21  1  0
 21 22  1  0
 22 23  2  0
 23 24  1  0
 24 25  1  0
 25 26  1  0
 25 27  1  0
 27 28  1  0
 28 29  1  0
 29 30  1  0
 30 31  2  0
 30 32  1  0
 23 33  1  0
 33 34  1  0
 33 35  2  0
 11  6  1  0
 20 15  1  0
 27 21  1  0
M  END
>  <IC50>  (98) 
>1

>  <cmpdNO>  (98) 
102

$$$$

     RDKit          2D

 27 30  0  0  0  0  0  0  0  0999 V2000
    1.2993   -0.3729    0.0000 O   0  0  0  0  0  0  0  0  0  0  0  0
    0.1724    0.6171    0.0000 C   0  0  0  0  0  0  0  0  0  0  0  0
    0.4663    2.0880    0.0000 C   0  0  0  0  0  0  0  0  0  0  0  0
   -0.6606    3.0780    0.0000 C   0  0  0  0  0  0  0  0  0  0  0  0
   -0.3667    4.5489    0.0000 O   0  0  0  0  0  0  0  0  0  0  0  0
   -2.0814    2.5971    0.0000 C   0  0  0  0  0  0  0  0  0  0  0  0
   -3.2083    3.5871    0.0000 O   0  0  0  0  0  0  0  0  0  0  0  0
   -2.3754    1.1261    0.0000 C   0  0  0  0  0  0  0  0  0  0  0  0
   -3.7962    0.6452    0.0000 O   0  0  0  0  0  0  0  0  0  0  0  0
   -1.2484    0.1361    0.0000 C   0  0  0  0  0  0  0  0  0  0  0  0
   -1.5424   -1.3348    0.0000 C   0  0  0  0  0  0  0  0  0  0  0  0
   -2.9632   -1.8157    0.0000 N   0  0  0  0  0  0  0  0  0  0  0  0
   -4.0901   -0.8257    0.0000 C   0  0  0  0  0  0  0  0  0  0  0  0
   -5.5109   -1.3066    0.0000 C   0  0  0  0  0  0  0  0  0  0  0  0
   -5.8048   -2.7776    0.0000 C   0  0  0  0  0  0  0  0  0  0  0  0
   -4.6779   -3.7676    0.0000 C   0  0  0  0  0  0  0  0  0  0  0  0
   -3.2571   -3.2866    0.0000 C   0  0  0  0  0  0  0  0  0  0  0  0
    1.8871    2.5689    0.0000 C   0  0  0  0  0  0  0  0  0  0  0  0
    2.1810    4.0399    0.0000 O   0  0  0  0  0  0  0  0  0  0  0  0
    3.0140    1.5789    0.0000 C   0  0  0  0  0  0  0  0  0  0  0  0
    2.7201    0.1080    0.0000 C   0  0  0  0  0  0  0  0  0  0  0  0
    3.8470   -0.8820    0.0000 C   0  0  0  0  0  0  0  0  0  0  0  0
    3.5531   -2.3529    0.0000 C   0  0  0  0  0  0  0  0  0  0  0  0
    4.6800   -3.3429    0.0000 C   0  0  0  0  0  0  0  0  0  0  0  0
    6.1008   -2.8620    0.0000 C   0  0  0  0  0  0  0  0  0  0  0  0
    6.3947   -1.3910    0.0000 C   0  0  0  0  0  0  0  0  0  0  0  0
    5.2678   -0.4010    0.0000 C   0  0  0  0  0  0  0  0  0  0  0  0
  1  2  1  0
  2  3  2  0
  3  4  1  0
  4  5  1  0
  4  6  2  0
  6  7  1  0
  6  8  1  0
  8  9  1  0
  8 10  2  0
 10 11  1  0
 11 12  1  0
 12 13  1  0
 13 14  1  0
 14 15  1  0
 15 16  1  0
 16 17  1  0
  3 18  1  0
 18 19  2  0
 18 20  1  0
 20 21  1  0
 21 22  1  0
 22 23  2  0
 23 24  1  0
 24 25  2  0
 25 26  1  0
 26 27  2  0
 21  1  1  0
 27 22  1  0
 10  2  1  0
 17 12  1  0
M  END
>  <IC50>  (99) 
103.87

>  <cmpdNO>  (99) 
103

$$$$

     RDKit          2D

 27 30  0  0  0  0  0  0  0  0999 V2000
    1.2993   -0.3729    0.0000 O   0  0  0  0  0  0  0  0  0  0  0  0
    0.1724    0.6171    0.0000 C   0  0  0  0  0  0  0  0  0  0  0  0
    0.4663    2.0880    0.0000 C   0  0  0  0  0  0  0  0  0  0  0  0
   -0.6606    3.0780    0.0000 C   0  0  0  0  0  0  0  0  0  0  0  0
   -0.3667    4.5489    0.0000 O   0  0  0  0  0  0  0  0  0  0  0  0
   -2.0814    2.5971    0.0000 C   0  0  0  0  0  0  0  0  0  0  0  0
   -3.2083    3.5871    0.0000 O   0  0  0  0  0  0  0  0  0  0  0  0
   -2.3754    1.1261    0.0000 C   0  0  0  0  0  0  0  0  0  0  0  0
   -3.7962    0.6452    0.0000 O   0  0  0  0  0  0  0  0  0  0  0  0
   -1.2484    0.1361    0.0000 C   0  0  0  0  0  0  0  0  0  0  0  0
   -1.5424   -1.3348    0.0000 C   0  0  0  0  0  0  0  0  0  0  0  0
   -2.9632   -1.8157    0.0000 N   0  0  0  0  0  0  0  0  0  0  0  0
   -4.0901   -0.8257    0.0000 C   0  0  0  0  0  0  0  0  0  0  0  0
   -5.5109   -1.3066    0.0000 C   0  0  0  0  0  0  0  0  0  0  0  0
   -5.8048   -2.7776    0.0000 N   0  0  0  0  0  0  0  0  0  0  0  0
   -4.6779   -3.7676    0.0000 C   0  0  0  0  0  0  0  0  0  0  0  0
   -3.2571   -3.2866    0.0000 C   0  0  0  0  0  0  0  0  0  0  0  0
    1.8871    2.5689    0.0000 C   0  0  0  0  0  0  0  0  0  0  0  0
    2.1810    4.0399    0.0000 O   0  0  0  0  0  0  0  0  0  0  0  0
    3.0140    1.5789    0.0000 C   0  0  0  0  0  0  0  0  0  0  0  0
    2.7201    0.1080    0.0000 C   0  0  0  0  0  0  0  0  0  0  0  0
    3.8470   -0.8820    0.0000 C   0  0  0  0  0  0  0  0  0  0  0  0
    3.5531   -2.3529    0.0000 C   0  0  0  0  0  0  0  0  0  0  0  0
    4.6800   -3.3429    0.0000 C   0  0  0  0  0  0  0  0  0  0  0  0
    6.1008   -2.8620    0.0000 C   0  0  0  0  0  0  0  0  0  0  0  0
    6.3947   -1.3910    0.0000 C   0  0  0  0  0  0  0  0  0  0  0  0
    5.2678   -0.4010    0.0000 C   0  0  0  0  0  0  0  0  0  0  0  0
  1  2  1  0
  2  3  2  0
  3  4  1  0
  4  5  1  0
  4  6  2  0
  6  7  1  0
  6  8  1  0
  8  9  1  0
  8 10  2  0
 10 11  1  0
 11 12  1  0
 12 13  1  0
 13 14  1  0
 14 15  1  0
 15 16  1  0
 16 17  1  0
  3 18  1  0
 18 19  2  0
 18 20  1  0
 20 21  1  0
 21 22  1  0
 22 23  2  0
 23 24  1  0
 24 25  2  0
 25 26  1  0
 26 27  2  0
 21  1  1  0
 27 22  1  0
 10  2  1  0
 17 12  1  0
M  END
>  <IC50>  (100) 
301.71

>  <cmpdNO>  (100) 
104

$$$$

     RDKit          2D

 30 33  0  0  0  0  0  0  0  0999 V2000
    2.1000   -0.4442    0.0000 O   0  0  0  0  0  0  0  0  0  0  0  0
    1.1490    0.7158    0.0000 C   0  0  0  0  0  0  0  0  0  0  0  0
    1.6780    2.1194    0.0000 C   0  0  0  0  0  0  0  0  0  0  0  0
    0.7269    3.2793    0.0000 C   0  0  0  0  0  0  0  0  0  0  0  0
    1.2559    4.6830    0.0000 O   0  0  0  0  0  0  0  0  0  0  0  0
   -0.7531    3.0357    0.0000 C   0  0  0  0  0  0  0  0  0  0  0  0
   -1.7042    4.1956    0.0000 O   0  0  0  0  0  0  0  0  0  0  0  0
   -1.2822    1.6320    0.0000 C   0  0  0  0  0  0  0  0  0  0  0  0
   -2.7622    1.3884    0.0000 O   0  0  0  0  0  0  0  0  0  0  0  0
   -0.3311    0.4721    0.0000 C   0  0  0  0  0  0  0  0  0  0  0  0
   -0.8601   -0.9315    0.0000 C   0  0  0  0  0  0  0  0  0  0  0  0
   -2.3402   -1.1752    0.0000 N   0  0  0  0  0  0  0  0  0  0  0  0
   -3.2912   -0.0152    0.0000 C   0  0  0  0  0  0  0  0  0  0  0  0
   -4.7713   -0.2589    0.0000 C   0  0  0  0  0  0  0  0  0  0  0  0
   -5.3003   -1.6625    0.0000 N   0  0  0  0  0  0  0  0  0  0  0  0
   -4.3493   -2.8225    0.0000 C   0  0  0  0  0  0  0  0  0  0  0  0
   -2.8692   -2.5788    0.0000 C   0  0  0  0  0  0  0  0  0  0  0  0
   -6.7804   -1.9062    0.0000 C   0  0  0  0  0  0  0  0  0  0  0  0
   -7.7315   -0.7463    0.0000 C   0  0  0  0  0  0  0  0  0  0  0  0
   -9.2115   -0.9899    0.0000 O   0  0  0  0  0  0  0  0  0  0  0  0
    3.1581    2.3631    0.0000 C   0  0  0  0  0  0  0  0  0  0  0  0
    3.6871    3.7667    0.0000 O   0  0  0  0  0  0  0  0  0  0  0  0
    4.1091    1.2031    0.0000 C   0  0  0  0  0  0  0  0  0  0  0  0
    3.5801   -0.2005    0.0000 C   0  0  0  0  0  0  0  0  0  0  0  0
    4.5312   -1.3604    0.0000 C   0  0  0  0  0  0  0  0  0  0  0  0
    4.0022   -2.7641    0.0000 C   0  0  0  0  0  0  0  0  0  0  0  0
    4.9532   -3.9240    0.0000 C   0  0  0  0  0  0  0  0  0  0  0  0
    6.4333   -3.6803    0.0000 C   0  0  0  0  0  0  0  0  0  0  0  0
    6.9623   -2.2767    0.0000 C   0  0  0  0  0  0  0  0  0  0  0  0
    6.0113   -1.1168    0.0000 C   0  0  0  0  0  0  0  0  0  0  0  0
  1  2  1  0
  2  3  2  0
  3  4  1  0
  4  5  1  0
  4  6  2  0
  6  7  1  0
  6  8  1  0
  8  9  1  0
  8 10  2  0
 10 11  1  0
 11 12  1  0
 12 13  1  0
 13 14  1  0
 14 15  1  0
 15 16  1  0
 16 17  1  0
 15 18  1  0
 18 19  1  0
 19 20  1  0
  3 21  1  0
 21 22  2  0
 21 23  1  0
 23 24  1  0
 24 25  1  0
 25 26  2  0
 26 27  1  0
 27 28  2  0
 28 29  1  0
 29 30  2  0
 24  1  1  0
 30 25  1  0
 10  2  1  0
 17 12  1  0
M  END
>  <IC50>  (101) 
276.43

>  <cmpdNO>  (101) 
105

$$$$

     RDKit          2D

 28 31  0  0  0  0  0  0  0  0999 V2000
    1.5256   -0.4047    0.0000 O   0  0  0  0  0  0  0  0  0  0  0  0
    0.4988    0.6888    0.0000 C   0  0  0  0  0  0  0  0  0  0  0  0
    0.9323    2.1248    0.0000 C   0  0  0  0  0  0  0  0  0  0  0  0
   -0.0945    3.2183    0.0000 C   0  0  0  0  0  0  0  0  0  0  0  0
    0.3391    4.6542    0.0000 O   0  0  0  0  0  0  0  0  0  0  0  0
   -1.5549    2.8757    0.0000 C   0  0  0  0  0  0  0  0  0  0  0  0
   -2.5817    3.9692    0.0000 O   0  0  0  0  0  0  0  0  0  0  0  0
   -1.9884    1.4398    0.0000 C   0  0  0  0  0  0  0  0  0  0  0  0
   -3.4488    1.0973    0.0000 O   0  0  0  0  0  0  0  0  0  0  0  0
   -0.9616    0.3463    0.0000 C   0  0  0  0  0  0  0  0  0  0  0  0
   -1.3952   -1.0897    0.0000 C   0  0  0  0  0  0  0  0  0  0  0  0
   -2.8556   -1.4322    0.0000 N   0  0  0  0  0  0  0  0  0  0  0  0
   -3.8824   -0.3387    0.0000 C   0  0  0  0  0  0  0  0  0  0  0  0
   -5.3427   -0.6812    0.0000 C   0  0  0  0  0  0  0  0  0  0  0  0
   -5.7763   -2.1172    0.0000 N   0  0  0  0  0  0  0  0  0  0  0  0
   -7.2367   -2.4597    0.0000 O   0  0  0  0  0  0  0  0  0  0  0  0
   -4.7495   -3.2106    0.0000 C   0  0  0  0  0  0  0  0  0  0  0  0
   -3.2891   -2.8681    0.0000 C   0  0  0  0  0  0  0  0  0  0  0  0
    2.3927    2.4673    0.0000 C   0  0  0  0  0  0  0  0  0  0  0  0
    2.8263    3.9033    0.0000 O   0  0  0  0  0  0  0  0  0  0  0  0
    3.4195    1.3738    0.0000 C   0  0  0  0  0  0  0  0  0  0  0  0
    2.9859   -0.0622    0.0000 C   0  0  0  0  0  0  0  0  0  0  0  0
    4.0127   -1.1556    0.0000 C   0  0  0  0  0  0  0  0  0  0  0  0
    3.5792   -2.5916    0.0000 C   0  0  0  0  0  0  0  0  0  0  0  0
    4.6060   -3.6851    0.0000 C   0  0  0  0  0  0  0  0  0  0  0  0
    6.0663   -3.3426    0.0000 C   0  0  0  0  0  0  0  0  0  0  0  0
    6.4999   -1.9066    0.0000 C   0  0  0  0  0  0  0  0  0  0  0  0
    5.4731   -0.8131    0.0000 C   0  0  0  0  0  0  0  0  0  0  0  0
  1  2  1  0
  2  3  2  0
  3  4  1  0
  4  5  1  0
  4  6  2  0
  6  7  1  0
  6  8  1  0
  8  9  1  0
  8 10  2  0
 10 11  1  0
 11 12  1  0
 12 13  1  0
 13 14  1  0
 14 15  1  0
 15 16  1  0
 15 17  1  0
 17 18  1  0
  3 19  1  0
 19 20  2  0
 19 21  1  0
 21 22  1  0
 22 23  1  0
 23 24  2  0
 24 25  1  0
 25 26  2  0
 26 27  1  0
 27 28  2  0
 22  1  1  0
 28 23  1  0
 10  2  1  0
 18 12  1  0
M  END
>  <IC50>  (102) 
92.54

>  <cmpdNO>  (102) 
106

$$$$

     RDKit          2D

 26 29  0  0  0  0  0  0  0  0999 V2000
    1.1260   -0.3817    0.0000 O   0  0  0  0  0  0  0  0  0  0  0  0
   -0.0803    0.5100    0.0000 C   0  0  0  0  0  0  0  0  0  0  0  0
    0.0888    2.0004    0.0000 C   0  0  0  0  0  0  0  0  0  0  0  0
   -1.1174    2.8921    0.0000 C   0  0  0  0  0  0  0  0  0  0  0  0
   -0.9483    4.3825    0.0000 O   0  0  0  0  0  0  0  0  0  0  0  0
   -2.4927    2.2933    0.0000 C   0  0  0  0  0  0  0  0  0  0  0  0
   -3.6989    3.1849    0.0000 O   0  0  0  0  0  0  0  0  0  0  0  0
   -2.6618    0.8028    0.0000 C   0  0  0  0  0  0  0  0  0  0  0  0
   -4.0371    0.2041    0.0000 O   0  0  0  0  0  0  0  0  0  0  0  0
   -1.4556   -0.0888    0.0000 C   0  0  0  0  0  0  0  0  0  0  0  0
   -1.6246   -1.5792    0.0000 C   0  0  0  0  0  0  0  0  0  0  0  0
   -2.9999   -2.1780    0.0000 N   0  0  0  0  0  0  0  0  0  0  0  0
   -3.3239   -3.6426    0.0000 C   0  0  0  0  0  0  0  0  0  0  0  0
   -4.8169   -3.7871    0.0000 C   0  0  0  0  0  0  0  0  0  0  0  0
   -5.4157   -2.4118    0.0000 C   0  0  0  0  0  0  0  0  0  0  0  0
   -4.2928   -1.4174    0.0000 C   0  0  0  0  0  0  0  0  0  0  0  0
    1.4641    2.5992    0.0000 C   0  0  0  0  0  0  0  0  0  0  0  0
    1.6332    4.0897    0.0000 O   0  0  0  0  0  0  0  0  0  0  0  0
    2.6703    1.7076    0.0000 C   0  0  0  0  0  0  0  0  0  0  0  0
    2.5013    0.2171    0.0000 C   0  0  0  0  0  0  0  0  0  0  0  0
    3.7075   -0.6745    0.0000 C   0  0  0  0  0  0  0  0  0  0  0  0
    3.5384   -2.1650    0.0000 C   0  0  0  0  0  0  0  0  0  0  0  0
    4.7446   -3.0566    0.0000 C   0  0  0  0  0  0  0  0  0  0  0  0
    6.1199   -2.4578    0.0000 C   0  0  0  0  0  0  0  0  0  0  0  0
    6.2890   -0.9674    0.0000 C   0  0  0  0  0  0  0  0  0  0  0  0
    5.0828   -0.0757    0.0000 C   0  0  0  0  0  0  0  0  0  0  0  0
  1  2  1  0
  2  3  2  0
  3  4  1  0
  4  5  1  0
  4  6  2  0
  6  7  1  0
  6  8  1  0
  8  9  1  0
  8 10  2  0
 10 11  1  0
 11 12  1  0
 12 13  1  0
 13 14  1  0
 14 15  1  0
 15 16  1  0
  3 17  1  0
 17 18  2  0
 17 19  1  0
 19 20  1  0
 20 21  1  0
 21 22  2  0
 22 23  1  0
 23 24  2  0
 24 25  1  0
 25 26  2  0
 20  1  1  0
 26 21  1  0
 10  2  1  0
 16 12  1  0
M  END
>  <IC50>  (103) 
107.11

>  <cmpdNO>  (103) 
107

$$$$

     RDKit          2D

 28 31  0  0  0  0  0  0  0  0999 V2000
    1.3630   -0.2867    0.0000 O   0  0  0  0  0  0  0  0  0  0  0  0
    0.2855    0.7568    0.0000 C   0  0  0  0  0  0  0  0  0  0  0  0
    0.6506    2.2117    0.0000 C   0  0  0  0  0  0  0  0  0  0  0  0
   -0.4269    3.2553    0.0000 C   0  0  0  0  0  0  0  0  0  0  0  0
   -0.0619    4.7102    0.0000 O   0  0  0  0  0  0  0  0  0  0  0  0
   -1.8694    2.8440    0.0000 C   0  0  0  0  0  0  0  0  0  0  0  0
   -2.9469    3.8876    0.0000 O   0  0  0  0  0  0  0  0  0  0  0  0
   -2.2344    1.3891    0.0000 C   0  0  0  0  0  0  0  0  0  0  0  0
   -3.6769    0.9777    0.0000 O   0  0  0  0  0  0  0  0  0  0  0  0
   -1.1570    0.3455    0.0000 C   0  0  0  0  0  0  0  0  0  0  0  0
   -1.5220   -1.1094    0.0000 C   0  0  0  0  0  0  0  0  0  0  0  0
   -2.9645   -1.5207    0.0000 N   0  0  0  0  0  0  0  0  0  0  0  0
   -4.0419   -0.4772    0.0000 C   0  0  0  0  0  0  0  0  0  0  0  0
   -5.4844   -0.8885    0.0000 C   0  0  0  0  0  0  0  0  0  0  0  0
   -5.8495   -2.3434    0.0000 C   0  0  0  0  0  0  0  0  0  0  0  0
   -4.7720   -3.3870    0.0000 C   0  0  0  0  0  0  0  0  0  0  0  0
   -3.3295   -2.9757    0.0000 C   0  0  0  0  0  0  0  0  0  0  0  0
   -2.2520   -4.0192    0.0000 C   0  0  0  0  0  0  0  0  0  0  0  0
    2.0931    2.6231    0.0000 C   0  0  0  0  0  0  0  0  0  0  0  0
    2.4581    4.0780    0.0000 O   0  0  0  0  0  0  0  0  0  0  0  0
    3.1705    1.5795    0.0000 C   0  0  0  0  0  0  0  0  0  0  0  0
    2.8055    0.1246    0.0000 C   0  0  0  0  0  0  0  0  0  0  0  0
    3.8830   -0.9190    0.0000 C   0  0  0  0  0  0  0  0  0  0  0  0
    3.5180   -2.3739    0.0000 C   0  0  0  0  0  0  0  0  0  0  0  0
    4.5955   -3.4175    0.0000 C   0  0  0  0  0  0  0  0  0  0  0  0
    6.0380   -3.0061    0.0000 C   0  0  0  0  0  0  0  0  0  0  0  0
    6.4030   -1.5512    0.0000 C   0  0  0  0  0  0  0  0  0  0  0  0
    5.3255   -0.5076    0.0000 C   0  0  0  0  0  0  0  0  0  0  0  0
  1  2  1  0
  2  3  2  0
  3  4  1  0
  4  5  1  0
  4  6  2  0
  6  7  1  0
  6  8  1  0
  8  9  1  0
  8 10  2  0
 10 11  1  0
 11 12  1  0
 12 13  1  0
 13 14  1  0
 14 15  1  0
 15 16  1  0
 16 17  1  0
 17 18  1  0
  3 19  1  0
 19 20  2  0
 19 21  1  0
 21 22  1  0
 22 23  1  0
 23 24  2  0
 24 25  1  0
 25 26  2  0
 26 27  1  0
 27 28  2  0
 22  1  1  0
 28 23  1  0
 10  2  1  0
 17 12  1  0
M  END
>  <IC50>  (104) 
99.66

>  <cmpdNO>  (104) 
108

$$$$

     RDKit          2D

 29 32  0  0  0  0  0  0  0  0999 V2000
    1.7965   -0.4225    0.0000 O   0  0  0  0  0  0  0  0  0  0  0  0
    0.8097    0.7072    0.0000 C   0  0  0  0  0  0  0  0  0  0  0  0
    1.2947    2.1266    0.0000 C   0  0  0  0  0  0  0  0  0  0  0  0
    0.3080    3.2564    0.0000 C   0  0  0  0  0  0  0  0  0  0  0  0
    0.7930    4.6758    0.0000 O   0  0  0  0  0  0  0  0  0  0  0  0
   -1.1638    2.9667    0.0000 C   0  0  0  0  0  0  0  0  0  0  0  0
   -2.1506    4.0964    0.0000 O   0  0  0  0  0  0  0  0  0  0  0  0
   -1.6488    1.5473    0.0000 C   0  0  0  0  0  0  0  0  0  0  0  0
   -3.1206    1.2576    0.0000 O   0  0  0  0  0  0  0  0  0  0  0  0
   -0.6621    0.4175    0.0000 C   0  0  0  0  0  0  0  0  0  0  0  0
   -1.1471   -1.0019    0.0000 C   0  0  0  0  0  0  0  0  0  0  0  0
   -2.6188   -1.2916    0.0000 N   0  0  0  0  0  0  0  0  0  0  0  0
   -3.6056   -0.1618    0.0000 C   0  0  0  0  0  0  0  0  0  0  0  0
   -5.0774   -0.4515    0.0000 C   0  0  0  0  0  0  0  0  0  0  0  0
   -5.5624   -1.8709    0.0000 C   0  0  0  0  0  0  0  0  0  0  0  0
   -4.5756   -3.0007    0.0000 C   0  0  0  0  0  0  0  0  0  0  0  0
   -3.1038   -2.7110    0.0000 C   0  0  0  0  0  0  0  0  0  0  0  0
   -7.0341   -2.1606    0.0000 C   0  0  0  0  0  0  0  0  0  0  0  0
   -8.0209   -1.0309    0.0000 O   0  0  0  0  0  0  0  0  0  0  0  0
    2.7665    2.4163    0.0000 C   0  0  0  0  0  0  0  0  0  0  0  0
    3.2515    3.8357    0.0000 O   0  0  0  0  0  0  0  0  0  0  0  0
    3.7532    1.2866    0.0000 C   0  0  0  0  0  0  0  0  0  0  0  0
    3.2682   -0.1328    0.0000 C   0  0  0  0  0  0  0  0  0  0  0  0
    4.2550   -1.2626    0.0000 C   0  0  0  0  0  0  0  0  0  0  0  0
    3.7700   -2.6820    0.0000 C   0  0  0  0  0  0  0  0  0  0  0  0
    4.7567   -3.8118    0.0000 C   0  0  0  0  0  0  0  0  0  0  0  0
    6.2285   -3.5221    0.0000 C   0  0  0  0  0  0  0  0  0  0  0  0
    6.7135   -2.1027    0.0000 C   0  0  0  0  0  0  0  0  0  0  0  0
    5.7267   -0.9729    0.0000 C   0  0  0  0  0  0  0  0  0  0  0  0
  1  2  1  0
  2  3  2  0
  3  4  1  0
  4  5  1  0
  4  6  2  0
  6  7  1  0
  6  8  1  0
  8  9  1  0
  8 10  2  0
 10 11  1  0
 11 12  1  0
 12 13  1  0
 13 14  1  0
 14 15  1  0
 15 16  1  0
 16 17  1  0
 15 18  1  0
 18 19  1  0
  3 20  1  0
 20 21  2  0
 20 22  1  0
 22 23  1  0
 23 24  1  0
 24 25  2  0
 25 26  1  0
 26 27  2  0
 27 28  1  0
 28 29  2  0
 23  1  1  0
 29 24  1  0
 10  2  1  0
 17 12  1  0
M  END
>  <IC50>  (105) 
470.1

>  <cmpdNO>  (105) 
109

$$$$

     RDKit          2D

 29 32  0  0  0  0  0  0  0  0999 V2000
    1.4896   -0.2950    0.0000 O   0  0  0  0  0  0  0  0  0  0  0  0
    0.3975    0.7332    0.0000 C   0  0  0  0  0  0  0  0  0  0  0  0
    0.7419    2.1931    0.0000 C   0  0  0  0  0  0  0  0  0  0  0  0
   -0.3502    3.2214    0.0000 C   0  0  0  0  0  0  0  0  0  0  0  0
   -0.0058    4.6813    0.0000 O   0  0  0  0  0  0  0  0  0  0  0  0
   -1.7868    2.7897    0.0000 C   0  0  0  0  0  0  0  0  0  0  0  0
   -2.8789    3.8180    0.0000 O   0  0  0  0  0  0  0  0  0  0  0  0
   -2.1312    1.3298    0.0000 C   0  0  0  0  0  0  0  0  0  0  0  0
   -3.2090    1.1451    0.0000 O   0  0  0  0  0  0  0  0  0  0  0  0
   -1.0391    0.3015    0.0000 C   0  0  0  0  0  0  0  0  0  0  0  0
   -1.3835   -1.1584    0.0000 C   0  0  0  0  0  0  0  0  0  0  0  0
   -2.8201   -1.5900    0.0000 N   0  0  0  0  0  0  0  0  0  0  0  0
   -3.9122   -0.5618    0.0000 C   0  0  0  0  0  0  0  0  0  0  0  0
   -5.3487   -0.9935    0.0000 C   0  0  0  0  0  0  0  0  0  0  0  0
   -5.6931   -2.4534    0.0000 O   0  0  0  0  0  0  0  0  0  0  0  0
   -4.6010   -3.4816    0.0000 C   0  0  0  0  0  0  0  0  0  0  0  0
   -3.1645   -3.0500    0.0000 C   0  0  0  0  0  0  0  0  0  0  0  0
   -2.0724   -4.0782    0.0000 C   0  0  0  0  0  0  0  0  0  0  0  0
   -3.7927    0.5252    0.0000 C   0  0  0  0  0  0  0  0  0  0  0  0
    2.1784    2.6248    0.0000 C   0  0  0  0  0  0  0  0  0  0  0  0
    2.5229    4.0847    0.0000 O   0  0  0  0  0  0  0  0  0  0  0  0
    3.2706    1.5966    0.0000 C   0  0  0  0  0  0  0  0  0  0  0  0
    2.9261    0.1366    0.0000 C   0  0  0  0  0  0  0  0  0  0  0  0
    4.0182   -0.8916    0.0000 C   0  0  0  0  0  0  0  0  0  0  0  0
    3.6738   -2.3515    0.0000 C   0  0  0  0  0  0  0  0  0  0  0  0
    4.7659   -3.3798    0.0000 C   0  0  0  0  0  0  0  0  0  0  0  0
    6.2025   -2.9481    0.0000 C   0  0  0  0  0  0  0  0  0  0  0  0
    6.5469   -1.4882    0.0000 C   0  0  0  0  0  0  0  0  0  0  0  0
    5.4548   -0.4599    0.0000 C   0  0  0  0  0  0  0  0  0  0  0  0
  1  2  1  0
  2  3  2  0
  3  4  1  0
  4  5  1  0
  4  6  2  0
  6  7  1  0
  6  8  1  0
  8  9  1  0
  8 10  2  0
 10 11  1  0
 11 12  1  0
 12 13  1  0
 13 14  1  0
 14 15  1  0
 15 16  1  0
 16 17  1  0
 17 18  1  0
 13 19  1  0
  3 20  1  0
 20 21  2  0
 20 22  1  0
 22 23  1  0
 23 24  1  0
 24 25  2  0
 25 26  1  0
 26 27  2  0
 27 28  1  0
 28 29  2  0
 23  1  1  0
 29 24  1  0
 10  2  1  0
 17 12  1  0
M  END
>  <IC50>  (106) 
591.03

>  <cmpdNO>  (106) 
110

$$$$

     RDKit          2D

 28 31  0  0  0  0  0  0  0  0999 V2000
    1.5332   -0.3748    0.0000 O   0  0  0  0  0  0  0  0  0  0  0  0
    0.4148    0.6248    0.0000 C   0  0  0  0  0  0  0  0  0  0  0  0
    0.7213    2.0932    0.0000 C   0  0  0  0  0  0  0  0  0  0  0  0
   -0.3970    3.0928    0.0000 C   0  0  0  0  0  0  0  0  0  0  0  0
   -0.0905    4.5612    0.0000 O   0  0  0  0  0  0  0  0  0  0  0  0
   -1.8219    2.6241    0.0000 C   0  0  0  0  0  0  0  0  0  0  0  0
   -2.9403    3.6238    0.0000 O   0  0  0  0  0  0  0  0  0  0  0  0
   -2.1284    1.1558    0.0000 C   0  0  0  0  0  0  0  0  0  0  0  0
   -3.5533    0.6871    0.0000 O   0  0  0  0  0  0  0  0  0  0  0  0
   -1.0101    0.1561    0.0000 C   0  0  0  0  0  0  0  0  0  0  0  0
   -1.3166   -1.3122    0.0000 C   0  0  0  0  0  0  0  0  0  0  0  0
   -2.7415   -1.7809    0.0000 N   0  0  0  0  0  0  0  0  0  0  0  0
   -3.8599   -0.7813    0.0000 C   0  0  0  0  0  0  0  0  0  0  0  0
   -5.2848   -1.2500    0.0000 C   0  0  0  0  0  0  0  0  0  0  0  0
   -6.4031   -0.2503    0.0000 O   0  0  0  0  0  0  0  0  0  0  0  0
   -5.5913   -2.7183    0.0000 C   0  0  0  0  0  0  0  0  0  0  0  0
   -4.4729   -3.7180    0.0000 C   0  0  0  0  0  0  0  0  0  0  0  0
   -3.0480   -3.2492    0.0000 C   0  0  0  0  0  0  0  0  0  0  0  0
    2.1462    2.5619    0.0000 C   0  0  0  0  0  0  0  0  0  0  0  0
    2.4528    4.0302    0.0000 O   0  0  0  0  0  0  0  0  0  0  0  0
    3.2646    1.5623    0.0000 C   0  0  0  0  0  0  0  0  0  0  0  0
    2.9581    0.0939    0.0000 C   0  0  0  0  0  0  0  0  0  0  0  0
    4.0764   -0.9057    0.0000 C   0  0  0  0  0  0  0  0  0  0  0  0
    3.7699   -2.3741    0.0000 C   0  0  0  0  0  0  0  0  0  0  0  0
    4.8882   -3.3737    0.0000 C   0  0  0  0  0  0  0  0  0  0  0  0
    6.3131   -2.9050    0.0000 C   0  0  0  0  0  0  0  0  0  0  0  0
    6.6197   -1.4367    0.0000 C   0  0  0  0  0  0  0  0  0  0  0  0
    5.5013   -0.4370    0.0000 C   0  0  0  0  0  0  0  0  0  0  0  0
  1  2  1  0
  2  3  2  0
  3  4  1  0
  4  5  1  0
  4  6  2  0
  6  7  1  0
  6  8  1  0
  8  9  1  0
  8 10  2  0
 10 11  1  0
 11 12  1  0
 12 13  1  0
 13 14  1  0
 14 15  1  0
 14 16  1  0
 16 17  1  0
 17 18  1  0
  3 19  1  0
 19 20  2  0
 19 21  1  0
 21 22  1  0
 22 23  1  0
 23 24  2  0
 24 25  1  0
 25 26  2  0
 26 27  1  0
 27 28  2  0
 22  1  1  0
 28 23  1  0
 10  2  1  0
 18 12  1  0
M  END
>  <IC50>  (107) 
68.22

>  <cmpdNO>  (107) 
111

$$$$

     RDKit          2D

 25 28  0  0  0  0  0  0  0  0999 V2000
    0.9573   -0.3236    0.0000 O   0  0  0  0  0  0  0  0  0  0  0  0
   -0.1820    0.6521    0.0000 C   0  0  0  0  0  0  0  0  0  0  0  0
    0.0932    2.1266    0.0000 C   0  0  0  0  0  0  0  0  0  0  0  0
    1.5079    2.6255    0.0000 C   0  0  0  0  0  0  0  0  0  0  0  0
    1.7831    4.1000    0.0000 O   0  0  0  0  0  0  0  0  0  0  0  0
    2.6472    1.6498    0.0000 C   0  0  0  0  0  0  0  0  0  0  0  0
    2.3719    0.1753    0.0000 C   0  0  0  0  0  0  0  0  0  0  0  0
    3.5113   -0.8004    0.0000 C   0  0  0  0  0  0  0  0  0  0  0  0
    3.2360   -2.2749    0.0000 C   0  0  0  0  0  0  0  0  0  0  0  0
    4.3753   -3.2505    0.0000 C   0  0  0  0  0  0  0  0  0  0  0  0
    5.7899   -2.7517    0.0000 C   0  0  0  0  0  0  0  0  0  0  0  0
    6.0652   -1.2771    0.0000 C   0  0  0  0  0  0  0  0  0  0  0  0
    4.9259   -0.3015    0.0000 C   0  0  0  0  0  0  0  0  0  0  0  0
   -1.0461    3.1023    0.0000 C   0  0  0  0  0  0  0  0  0  0  0  0
   -0.7708    4.5768    0.0000 O   0  0  0  0  0  0  0  0  0  0  0  0
   -2.4607    2.6034    0.0000 C   0  0  0  0  0  0  0  0  0  0  0  0
   -2.7360    1.1289    0.0000 C   0  0  0  0  0  0  0  0  0  0  0  0
   -4.1506    0.6300    0.0000 O   0  0  0  0  0  0  0  0  0  0  0  0
   -1.5966    0.1532    0.0000 C   0  0  0  0  0  0  0  0  0  0  0  0
   -1.8719   -1.3213    0.0000 C   0  0  0  0  0  0  0  0  0  0  0  0
   -3.2865   -1.8202    0.0000 N   0  0  0  0  0  0  0  0  0  0  0  0
   -3.7144   -3.2579    0.0000 C   0  0  0  0  0  0  0  0  0  0  0  0
   -5.2140   -3.2952    0.0000 C   0  0  0  0  0  0  0  0  0  0  0  0
   -5.7128   -1.8806    0.0000 C   0  0  0  0  0  0  0  0  0  0  0  0
   -4.5216   -0.9690    0.0000 C   0  0  0  0  0  0  0  0  0  0  0  0
  1  2  1  0
  2  3  2  0
  3  4  1  0
  4  5  2  0
  4  6  1  0
  6  7  1  0
  7  8  1  0
  8  9  2  0
  9 10  1  0
 10 11  2  0
 11 12  1  0
 12 13  2  0
  3 14  1  0
 14 15  1  0
 14 16  2  0
 16 17  1  0
 17 18  1  0
 17 19  2  0
 19 20  1  0
 20 21  1  0
 21 22  1  0
 22 23  1  0
 23 24  1  0
 24 25  1  0
  7  1  1  0
 13  8  1  0
 25 21  1  0
 19  2  1  0
M  END
>  <IC50>  (108) 
181.75

>  <cmpdNO>  (108) 
112

$$$$

     RDKit          2D

 26 29  0  0  0  0  0  0  0  0999 V2000
    1.1595   -0.3058    0.0000 O   0  0  0  0  0  0  0  0  0  0  0  0
    0.0946    0.7507    0.0000 C   0  0  0  0  0  0  0  0  0  0  0  0
    0.4771    2.2011    0.0000 C   0  0  0  0  0  0  0  0  0  0  0  0
    1.9245    2.5950    0.0000 C   0  0  0  0  0  0  0  0  0  0  0  0
    2.3070    4.0454    0.0000 O   0  0  0  0  0  0  0  0  0  0  0  0
    2.9893    1.5386    0.0000 C   0  0  0  0  0  0  0  0  0  0  0  0
    2.6068    0.0882    0.0000 C   0  0  0  0  0  0  0  0  0  0  0  0
    3.6716   -0.9683    0.0000 C   0  0  0  0  0  0  0  0  0  0  0  0
    3.2891   -2.4187    0.0000 C   0  0  0  0  0  0  0  0  0  0  0  0
    4.3540   -3.4752    0.0000 C   0  0  0  0  0  0  0  0  0  0  0  0
    5.8013   -3.0813    0.0000 C   0  0  0  0  0  0  0  0  0  0  0  0
    6.1838   -1.6309    0.0000 C   0  0  0  0  0  0  0  0  0  0  0  0
    5.1190   -0.5744    0.0000 C   0  0  0  0  0  0  0  0  0  0  0  0
   -0.5877    3.2576    0.0000 C   0  0  0  0  0  0  0  0  0  0  0  0
   -0.2052    4.7080    0.0000 O   0  0  0  0  0  0  0  0  0  0  0  0
   -2.0350    2.8636    0.0000 C   0  0  0  0  0  0  0  0  0  0  0  0
   -2.4175    1.4132    0.0000 C   0  0  0  0  0  0  0  0  0  0  0  0
   -3.8649    1.0193    0.0000 O   0  0  0  0  0  0  0  0  0  0  0  0
   -1.3527    0.3567    0.0000 C   0  0  0  0  0  0  0  0  0  0  0  0
   -1.7352   -1.0937    0.0000 C   0  0  0  0  0  0  0  0  0  0  0  0
   -3.1826   -1.4876    0.0000 N   0  0  0  0  0  0  0  0  0  0  0  0
   -4.2474   -0.4311    0.0000 C   0  0  0  0  0  0  0  0  0  0  0  0
   -5.6948   -0.8251    0.0000 C   0  0  0  0  0  0  0  0  0  0  0  0
   -6.0773   -2.2755    0.0000 N   0  0  0  0  0  0  0  0  0  0  0  0
   -5.0124   -3.3319    0.0000 C   0  0  0  0  0  0  0  0  0  0  0  0
   -3.5651   -2.9380    0.0000 C   0  0  0  0  0  0  0  0  0  0  0  0
  1  2  1  0
  2  3  2  0
  3  4  1  0
  4  5  2  0
  4  6  1  0
  6  7  1  0
  7  8  1  0
  8  9  2  0
  9 10  1  0
 10 11  2  0
 11 12  1  0
 12 13  2  0
  3 14  1  0
 14 15  1  0
 14 16  2  0
 16 17  1  0
 17 18  1  0
 17 19  2  0
 19 20  1  0
 20 21  1  0
 21 22  1  0
 22 23  1  0
 23 24  1  0
 24 25  1  0
 25 26  1  0
  7  1  1  0
 13  8  1  0
 26 21  1  0
 19  2  1  0
M  END
>  <IC50>  (109) 
431.12

>  <cmpdNO>  (109) 
113

$$$$

     RDKit          2D

 26 29  0  0  0  0  0  0  0  0999 V2000
    1.1595   -0.3058    0.0000 O   0  0  0  0  0  0  0  0  0  0  0  0
    0.0946    0.7507    0.0000 C   0  0  0  0  0  0  0  0  0  0  0  0
    0.4771    2.2011    0.0000 C   0  0  0  0  0  0  0  0  0  0  0  0
    1.9245    2.5950    0.0000 C   0  0  0  0  0  0  0  0  0  0  0  0
    2.3070    4.0454    0.0000 O   0  0  0  0  0  0  0  0  0  0  0  0
    2.9893    1.5386    0.0000 C   0  0  0  0  0  0  0  0  0  0  0  0
    2.6068    0.0882    0.0000 C   0  0  0  0  0  0  0  0  0  0  0  0
    3.6716   -0.9683    0.0000 C   0  0  0  0  0  0  0  0  0  0  0  0
    3.2891   -2.4187    0.0000 C   0  0  0  0  0  0  0  0  0  0  0  0
    4.3540   -3.4752    0.0000 C   0  0  0  0  0  0  0  0  0  0  0  0
    5.8013   -3.0813    0.0000 C   0  0  0  0  0  0  0  0  0  0  0  0
    6.1838   -1.6309    0.0000 C   0  0  0  0  0  0  0  0  0  0  0  0
    5.1190   -0.5744    0.0000 C   0  0  0  0  0  0  0  0  0  0  0  0
   -0.5877    3.2576    0.0000 C   0  0  0  0  0  0  0  0  0  0  0  0
   -0.2052    4.7080    0.0000 O   0  0  0  0  0  0  0  0  0  0  0  0
   -2.0350    2.8636    0.0000 C   0  0  0  0  0  0  0  0  0  0  0  0
   -2.4175    1.4132    0.0000 C   0  0  0  0  0  0  0  0  0  0  0  0
   -3.8649    1.0193    0.0000 O   0  0  0  0  0  0  0  0  0  0  0  0
   -1.3527    0.3567    0.0000 C   0  0  0  0  0  0  0  0  0  0  0  0
   -1.7352   -1.0937    0.0000 C   0  0  0  0  0  0  0  0  0  0  0  0
   -3.1826   -1.4876    0.0000 N   0  0  0  0  0  0  0  0  0  0  0  0
   -4.2474   -0.4311    0.0000 C   0  0  0  0  0  0  0  0  0  0  0  0
   -5.6948   -0.8251    0.0000 C   0  0  0  0  0  0  0  0  0  0  0  0
   -6.0773   -2.2755    0.0000 O   0  0  0  0  0  0  0  0  0  0  0  0
   -5.0124   -3.3319    0.0000 C   0  0  0  0  0  0  0  0  0  0  0  0
   -3.5651   -2.9380    0.0000 C   0  0  0  0  0  0  0  0  0  0  0  0
  1  2  1  0
  2  3  2  0
  3  4  1  0
  4  5  2  0
  4  6  1  0
  6  7  1  0
  7  8  1  0
  8  9  2  0
  9 10  1  0
 10 11  2  0
 11 12  1  0
 12 13  2  0
  3 14  1  0
 14 15  1  0
 14 16  2  0
 16 17  1  0
 17 18  1  0
 17 19  2  0
 19 20  1  0
 20 21  1  0
 21 22  1  0
 22 23  1  0
 23 24  1  0
 24 25  1  0
 25 26  1  0
  7  1  1  0
 13  8  1  0
 26 21  1  0
 19  2  1  0
M  END
>  <IC50>  (110) 
447.9

>  <cmpdNO>  (110) 
114

$$$$

     RDKit          2D

 27 30  0  0  0  0  0  0  0  0999 V2000
    1.4118   -0.3056    0.0000 O   0  0  0  0  0  0  0  0  0  0  0  0
    0.3404    0.7443    0.0000 C   0  0  0  0  0  0  0  0  0  0  0  0
    0.7138    2.1970    0.0000 C   0  0  0  0  0  0  0  0  0  0  0  0
    2.1587    2.6000    0.0000 C   0  0  0  0  0  0  0  0  0  0  0  0
    2.5321    4.0527    0.0000 O   0  0  0  0  0  0  0  0  0  0  0  0
    3.2301    1.5502    0.0000 C   0  0  0  0  0  0  0  0  0  0  0  0
    2.8566    0.0974    0.0000 C   0  0  0  0  0  0  0  0  0  0  0  0
    3.9280   -0.9524    0.0000 C   0  0  0  0  0  0  0  0  0  0  0  0
    3.5546   -2.4052    0.0000 C   0  0  0  0  0  0  0  0  0  0  0  0
    4.6260   -3.4550    0.0000 C   0  0  0  0  0  0  0  0  0  0  0  0
    6.0708   -3.0520    0.0000 C   0  0  0  0  0  0  0  0  0  0  0  0
    6.4443   -1.5993    0.0000 C   0  0  0  0  0  0  0  0  0  0  0  0
    5.3729   -0.5495    0.0000 C   0  0  0  0  0  0  0  0  0  0  0  0
   -0.3576    3.2468    0.0000 C   0  0  0  0  0  0  0  0  0  0  0  0
    0.0159    4.6996    0.0000 O   0  0  0  0  0  0  0  0  0  0  0  0
   -1.8024    2.8439    0.0000 C   0  0  0  0  0  0  0  0  0  0  0  0
   -2.1759    1.3911    0.0000 C   0  0  0  0  0  0  0  0  0  0  0  0
   -3.6208    0.9881    0.0000 O   0  0  0  0  0  0  0  0  0  0  0  0
   -1.1045    0.3413    0.0000 C   0  0  0  0  0  0  0  0  0  0  0  0
   -1.4780   -1.1115    0.0000 C   0  0  0  0  0  0  0  0  0  0  0  0
   -2.9228   -1.5144    0.0000 N   0  0  0  0  0  0  0  0  0  0  0  0
   -3.9942   -0.4646    0.0000 C   0  0  0  0  0  0  0  0  0  0  0  0
   -5.4391   -0.8676    0.0000 C   0  0  0  0  0  0  0  0  0  0  0  0
   -6.5105    0.1822    0.0000 O   0  0  0  0  0  0  0  0  0  0  0  0
   -5.8126   -2.3203    0.0000 C   0  0  0  0  0  0  0  0  0  0  0  0
   -4.7412   -3.3701    0.0000 C   0  0  0  0  0  0  0  0  0  0  0  0
   -3.2963   -2.9672    0.0000 C   0  0  0  0  0  0  0  0  0  0  0  0
  1  2  1  0
  2  3  2  0
  3  4  1  0
  4  5  2  0
  4  6  1  0
  6  7  1  0
  7  8  1  0
  8  9  2  0
  9 10  1  0
 10 11  2  0
 11 12  1  0
 12 13  2  0
  3 14  1  0
 14 15  1  0
 14 16  2  0
 16 17  1  0
 17 18  1  0
 17 19  2  0
 19 20  1  0
 20 21  1  0
 21 22  1  0
 22 23  1  0
 23 24  1  0
 23 25  1  0
 25 26  1  0
 26 27  1  0
  7  1  1  0
 13  8  1  0
 27 21  1  0
 19  2  1  0
M  END
>  <IC50>  (111) 
258.83

>  <cmpdNO>  (111) 
115

$$$$

     RDKit          2D

 27 30  0  0  0  0  0  0  0  0999 V2000
    1.4176   -0.3187    0.0000 O   0  0  0  0  0  0  0  0  0  0  0  0
    0.4386    0.8178    0.0000 C   0  0  0  0  0  0  0  0  0  0  0  0
    0.9333    2.2339    0.0000 C   0  0  0  0  0  0  0  0  0  0  0  0
    2.4070    2.5135    0.0000 C   0  0  0  0  0  0  0  0  0  0  0  0
    2.9017    3.9296    0.0000 O   0  0  0  0  0  0  0  0  0  0  0  0
    3.3860    1.3770    0.0000 C   0  0  0  0  0  0  0  0  0  0  0  0
    2.8913   -0.0391    0.0000 C   0  0  0  0  0  0  0  0  0  0  0  0
    3.8703   -1.1755    0.0000 C   0  0  0  0  0  0  0  0  0  0  0  0
    3.3756   -2.5916    0.0000 C   0  0  0  0  0  0  0  0  0  0  0  0
    4.3546   -3.7281    0.0000 C   0  0  0  0  0  0  0  0  0  0  0  0
    5.8283   -3.4484    0.0000 C   0  0  0  0  0  0  0  0  0  0  0  0
    6.3230   -2.0324    0.0000 C   0  0  0  0  0  0  0  0  0  0  0  0
    5.3440   -0.8959    0.0000 C   0  0  0  0  0  0  0  0  0  0  0  0
   -0.0457    3.3703    0.0000 C   0  0  0  0  0  0  0  0  0  0  0  0
    0.4490    4.7864    0.0000 O   0  0  0  0  0  0  0  0  0  0  0  0
   -1.5194    3.0907    0.0000 C   0  0  0  0  0  0  0  0  0  0  0  0
   -2.0141    1.6746    0.0000 C   0  0  0  0  0  0  0  0  0  0  0  0
   -3.4878    1.3950    0.0000 O   0  0  0  0  0  0  0  0  0  0  0  0
   -1.0351    0.5382    0.0000 C   0  0  0  0  0  0  0  0  0  0  0  0
   -1.5298   -0.8779    0.0000 C   0  0  0  0  0  0  0  0  0  0  0  0
   -3.0035   -1.1575    0.0000 N   0  0  0  0  0  0  0  0  0  0  0  0
   -3.9825   -0.0211    0.0000 C   0  0  0  0  0  0  0  0  0  0  0  0
   -5.4563   -0.3007    0.0000 C   0  0  0  0  0  0  0  0  0  0  0  0
   -5.9509   -1.7168    0.0000 C   0  0  0  0  0  0  0  0  0  0  0  0
   -7.4247   -1.9964    0.0000 O   0  0  0  0  0  0  0  0  0  0  0  0
   -4.9719   -2.8532    0.0000 C   0  0  0  0  0  0  0  0  0  0  0  0
   -3.4982   -2.5736    0.0000 C   0  0  0  0  0  0  0  0  0  0  0  0
  1  2  1  0
  2  3  2  0
  3  4  1  0
  4  5  2  0
  4  6  1  0
  6  7  1  0
  7  8  1  0
  8  9  2  0
  9 10  1  0
 10 11  2  0
 11 12  1  0
 12 13  2  0
  3 14  1  0
 14 15  1  0
 14 16  2  0
 16 17  1  0
 17 18  1  0
 17 19  2  0
 19 20  1  0
 20 21  1  0
 21 22  1  0
 22 23  1  0
 23 24  1  0
 24 25  1  0
 24 26  1  0
 26 27  1  0
  7  1  1  0
 13  8  1  0
 27 21  1  0
 19  2  1  0
M  END
>  <IC50>  (112) 
295.26

>  <cmpdNO>  (112) 
116

$$$$

     RDKit          2D

 29 32  0  0  0  0  0  0  0  0999 V2000
    2.0355   -0.3368    0.0000 O   0  0  0  0  0  0  0  0  0  0  0  0
    1.1058    0.8404    0.0000 C   0  0  0  0  0  0  0  0  0  0  0  0
    1.6604    2.2341    0.0000 C   0  0  0  0  0  0  0  0  0  0  0  0
    3.1447    2.4506    0.0000 C   0  0  0  0  0  0  0  0  0  0  0  0
    3.6993    3.8443    0.0000 O   0  0  0  0  0  0  0  0  0  0  0  0
    4.0743    1.2735    0.0000 C   0  0  0  0  0  0  0  0  0  0  0  0
    3.5197   -0.1202    0.0000 C   0  0  0  0  0  0  0  0  0  0  0  0
    4.4494   -1.2974    0.0000 C   0  0  0  0  0  0  0  0  0  0  0  0
    3.8948   -2.6911    0.0000 C   0  0  0  0  0  0  0  0  0  0  0  0
    4.8245   -3.8682    0.0000 C   0  0  0  0  0  0  0  0  0  0  0  0
    6.3088   -3.6517    0.0000 C   0  0  0  0  0  0  0  0  0  0  0  0
    6.8634   -2.2580    0.0000 C   0  0  0  0  0  0  0  0  0  0  0  0
    5.9337   -1.0808    0.0000 C   0  0  0  0  0  0  0  0  0  0  0  0
    0.7307    3.4112    0.0000 C   0  0  0  0  0  0  0  0  0  0  0  0
    1.2853    4.8049    0.0000 O   0  0  0  0  0  0  0  0  0  0  0  0
   -0.7536    3.1947    0.0000 C   0  0  0  0  0  0  0  0  0  0  0  0
   -1.3082    1.8010    0.0000 C   0  0  0  0  0  0  0  0  0  0  0  0
   -2.7925    1.5844    0.0000 O   0  0  0  0  0  0  0  0  0  0  0  0
   -0.3785    0.6238    0.0000 C   0  0  0  0  0  0  0  0  0  0  0  0
   -0.9331   -0.7699    0.0000 C   0  0  0  0  0  0  0  0  0  0  0  0
   -2.4174   -0.9865    0.0000 N   0  0  0  0  0  0  0  0  0  0  0  0
   -3.3471    0.1907    0.0000 C   0  0  0  0  0  0  0  0  0  0  0  0
   -4.8314   -0.0259    0.0000 C   0  0  0  0  0  0  0  0  0  0  0  0
   -5.3860   -1.4196    0.0000 N   0  0  0  0  0  0  0  0  0  0  0  0
   -4.4563   -2.5967    0.0000 C   0  0  0  0  0  0  0  0  0  0  0  0
   -2.9720   -2.3802    0.0000 C   0  0  0  0  0  0  0  0  0  0  0  0
   -6.8702   -1.6361    0.0000 C   0  0  0  0  0  0  0  0  0  0  0  0
   -7.7999   -0.4590    0.0000 C   0  0  0  0  0  0  0  0  0  0  0  0
   -9.2842   -0.6756    0.0000 O   0  0  0  0  0  0  0  0  0  0  0  0
  1  2  1  0
  2  3  2  0
  3  4  1  0
  4  5  2  0
  4  6  1  0
  6  7  1  0
  7  8  1  0
  8  9  2  0
  9 10  1  0
 10 11  2  0
 11 12  1  0
 12 13  2  0
  3 14  1  0
 14 15  1  0
 14 16  2  0
 16 17  1  0
 17 18  1  0
 17 19  2  0
 19 20  1  0
 20 21  1  0
 21 22  1  0
 22 23  1  0
 23 24  1  0
 24 25  1  0
 25 26  1  0
 24 27  1  0
 27 28  1  0
 28 29  1  0
  7  1  1  0
 13  8  1  0
 26 21  1  0
 19  2  1  0
M  END
>  <IC50>  (113) 
135.33

>  <cmpdNO>  (113) 
117

$$$$

     RDKit          2D

 28 31  0  0  0  0  0  0  0  0999 V2000
    1.7109   -0.3258    0.0000 O   0  0  0  0  0  0  0  0  0  0  0  0
    0.7572    0.8320    0.0000 C   0  0  0  0  0  0  0  0  0  0  0  0
    1.2831    2.2368    0.0000 C   0  0  0  0  0  0  0  0  0  0  0  0
    2.7626    2.4838    0.0000 C   0  0  0  0  0  0  0  0  0  0  0  0
    3.2884    3.8887    0.0000 O   0  0  0  0  0  0  0  0  0  0  0  0
    3.7163    1.3261    0.0000 C   0  0  0  0  0  0  0  0  0  0  0  0
    3.1905   -0.0788    0.0000 C   0  0  0  0  0  0  0  0  0  0  0  0
    4.1442   -1.2365    0.0000 C   0  0  0  0  0  0  0  0  0  0  0  0
    3.6183   -2.6414    0.0000 C   0  0  0  0  0  0  0  0  0  0  0  0
    4.5720   -3.7991    0.0000 C   0  0  0  0  0  0  0  0  0  0  0  0
    6.0516   -3.5521    0.0000 C   0  0  0  0  0  0  0  0  0  0  0  0
    6.5774   -2.1473    0.0000 C   0  0  0  0  0  0  0  0  0  0  0  0
    5.6237   -0.9895    0.0000 C   0  0  0  0  0  0  0  0  0  0  0  0
    0.3294    3.3946    0.0000 C   0  0  0  0  0  0  0  0  0  0  0  0
    0.8552    4.7994    0.0000 O   0  0  0  0  0  0  0  0  0  0  0  0
   -1.1502    3.1475    0.0000 C   0  0  0  0  0  0  0  0  0  0  0  0
   -1.6760    1.7427    0.0000 C   0  0  0  0  0  0  0  0  0  0  0  0
   -3.1555    1.4957    0.0000 O   0  0  0  0  0  0  0  0  0  0  0  0
   -0.7223    0.5849    0.0000 C   0  0  0  0  0  0  0  0  0  0  0  0
   -1.2481   -0.8199    0.0000 C   0  0  0  0  0  0  0  0  0  0  0  0
   -2.7276   -1.0669    0.0000 N   0  0  0  0  0  0  0  0  0  0  0  0
   -3.6813    0.0909    0.0000 C   0  0  0  0  0  0  0  0  0  0  0  0
   -5.1608   -0.1562    0.0000 C   0  0  0  0  0  0  0  0  0  0  0  0
   -5.6866   -1.5610    0.0000 C   0  0  0  0  0  0  0  0  0  0  0  0
   -4.7329   -2.7188    0.0000 C   0  0  0  0  0  0  0  0  0  0  0  0
   -3.2534   -2.4717    0.0000 C   0  0  0  0  0  0  0  0  0  0  0  0
   -7.1662   -1.8080    0.0000 C   0  0  0  0  0  0  0  0  0  0  0  0
   -8.1199   -0.6502    0.0000 O   0  0  0  0  0  0  0  0  0  0  0  0
  1  2  1  0
  2  3  2  0
  3  4  1  0
  4  5  2  0
  4  6  1  0
  6  7  1  0
  7  8  1  0
  8  9  2  0
  9 10  1  0
 10 11  2  0
 11 12  1  0
 12 13  2  0
  3 14  1  0
 14 15  1  0
 14 16  2  0
 16 17  1  0
 17 18  1  0
 17 19  2  0
 19 20  1  0
 20 21  1  0
 21 22  1  0
 22 23  1  0
 23 24  1  0
 24 25  1  0
 25 26  1  0
 24 27  1  0
 27 28  1  0
  7  1  1  0
 13  8  1  0
 26 21  1  0
 19  2  1  0
M  END
>  <IC50>  (114) 
83.7

>  <cmpdNO>  (114) 
118

$$$$

     RDKit          2D

 28 31  0  0  0  0  0  0  0  0999 V2000
    0.7545    0.1663    0.0000 O   0  0  0  0  0  0  0  0  0  0  0  0
   -0.4939    0.9979    0.0000 C   0  0  0  0  0  0  0  0  0  0  0  0
   -0.3978    2.4949    0.0000 C   0  0  0  0  0  0  0  0  0  0  0  0
    0.9466    3.1602    0.0000 C   0  0  0  0  0  0  0  0  0  0  0  0
    1.0426    4.6571    0.0000 O   0  0  0  0  0  0  0  0  0  0  0  0
    2.1949    2.3285    0.0000 C   0  0  0  0  0  0  0  0  0  0  0  0
    2.0989    0.8316    0.0000 C   0  0  0  0  0  0  0  0  0  0  0  0
    3.3472    0.0000    0.0000 C   0  0  0  0  0  0  0  0  0  0  0  0
    3.2512   -1.4969    0.0000 C   0  0  0  0  0  0  0  0  0  0  0  0
    4.4996   -2.3285    0.0000 C   0  0  0  0  0  0  0  0  0  0  0  0
    4.4036   -3.8255    0.0000 O   0  0  0  0  0  0  0  0  0  0  0  0
    5.8440   -1.6632    0.0000 C   0  0  0  0  0  0  0  0  0  0  0  0
    7.0923   -2.4949    0.0000 O   0  0  0  0  0  0  0  0  0  0  0  0
    5.9400   -0.1663    0.0000 C   0  0  0  0  0  0  0  0  0  0  0  0
    4.6916    0.6653    0.0000 C   0  0  0  0  0  0  0  0  0  0  0  0
   -1.6462    3.3265    0.0000 C   0  0  0  0  0  0  0  0  0  0  0  0
   -1.5502    4.8234    0.0000 O   0  0  0  0  0  0  0  0  0  0  0  0
   -2.9906    2.6612    0.0000 C   0  0  0  0  0  0  0  0  0  0  0  0
   -3.0866    1.1643    0.0000 C   0  0  0  0  0  0  0  0  0  0  0  0
   -4.4310    0.4990    0.0000 O   0  0  0  0  0  0  0  0  0  0  0  0
   -1.8382    0.3326    0.0000 C   0  0  0  0  0  0  0  0  0  0  0  0
   -1.9343   -1.1643    0.0000 C   0  0  0  0  0  0  0  0  0  0  0  0
   -3.2787   -1.8296    0.0000 N   0  0  0  0  0  0  0  0  0  0  0  0
   -4.5270   -0.9979    0.0000 C   0  0  0  0  0  0  0  0  0  0  0  0
   -5.8714   -1.6632    0.0000 C   0  0  0  0  0  0  0  0  0  0  0  0
   -5.9674   -3.1602    0.0000 C   0  0  0  0  0  0  0  0  0  0  0  0
   -4.7191   -3.9918    0.0000 C   0  0  0  0  0  0  0  0  0  0  0  0
   -3.3747   -3.3265    0.0000 C   0  0  0  0  0  0  0  0  0  0  0  0
  1  2  1  0
  2  3  2  0
  3  4  1  0
  4  5  2  0
  4  6  1  0
  6  7  1  0
  7  8  1  0
  8  9  2  0
  9 10  1  0
 10 11  1  0
 10 12  2  0
 12 13  1  0
 12 14  1  0
 14 15  2  0
  3 16  1  0
 16 17  1  0
 16 18  2  0
 18 19  1  0
 19 20  1  0
 19 21  2  0
 21 22  1  0
 22 23  1  0
 23 24  1  0
 24 25  1  0
 25 26  1  0
 26 27  1  0
 27 28  1  0
  7  1  1  0
 15  8  1  0
 28 23  1  0
 21  2  1  0
M  END
>  <IC50>  (115) 
62.87

>  <cmpdNO>  (115) 
119

$$$$

     RDKit          2D

 29 32  0  0  0  0  0  0  0  0999 V2000
    1.0037    0.1748    0.0000 O   0  0  0  0  0  0  0  0  0  0  0  0
   -0.2276    1.0314    0.0000 C   0  0  0  0  0  0  0  0  0  0  0  0
   -0.1014    2.5261    0.0000 C   0  0  0  0  0  0  0  0  0  0  0  0
    1.2561    3.1642    0.0000 C   0  0  0  0  0  0  0  0  0  0  0  0
    1.3822    4.6589    0.0000 O   0  0  0  0  0  0  0  0  0  0  0  0
    2.4874    2.3076    0.0000 C   0  0  0  0  0  0  0  0  0  0  0  0
    2.3613    0.8129    0.0000 C   0  0  0  0  0  0  0  0  0  0  0  0
    3.5926   -0.0437    0.0000 C   0  0  0  0  0  0  0  0  0  0  0  0
    3.4664   -1.5384    0.0000 C   0  0  0  0  0  0  0  0  0  0  0  0
    4.6978   -2.3950    0.0000 C   0  0  0  0  0  0  0  0  0  0  0  0
    4.5716   -3.8897    0.0000 O   0  0  0  0  0  0  0  0  0  0  0  0
    6.0553   -1.7569    0.0000 C   0  0  0  0  0  0  0  0  0  0  0  0
    7.2867   -2.6135    0.0000 O   0  0  0  0  0  0  0  0  0  0  0  0
    6.1815   -0.2622    0.0000 C   0  0  0  0  0  0  0  0  0  0  0  0
    4.9501    0.5944    0.0000 C   0  0  0  0  0  0  0  0  0  0  0  0
   -1.3328    3.3827    0.0000 C   0  0  0  0  0  0  0  0  0  0  0  0
   -1.2066    4.8774    0.0000 O   0  0  0  0  0  0  0  0  0  0  0  0
   -2.6903    2.7446    0.0000 C   0  0  0  0  0  0  0  0  0  0  0  0
   -2.8165    1.2500    0.0000 C   0  0  0  0  0  0  0  0  0  0  0  0
   -4.1740    0.6119    0.0000 O   0  0  0  0  0  0  0  0  0  0  0  0
   -1.5851    0.3933    0.0000 C   0  0  0  0  0  0  0  0  0  0  0  0
   -1.7113   -1.1013    0.0000 C   0  0  0  0  0  0  0  0  0  0  0  0
   -3.0688   -1.7394    0.0000 N   0  0  0  0  0  0  0  0  0  0  0  0
   -4.3002   -0.8828    0.0000 C   0  0  0  0  0  0  0  0  0  0  0  0
   -5.6577   -1.5209    0.0000 C   0  0  0  0  0  0  0  0  0  0  0  0
   -6.8890   -0.6643    0.0000 O   0  0  0  0  0  0  0  0  0  0  0  0
   -5.7839   -3.0156    0.0000 C   0  0  0  0  0  0  0  0  0  0  0  0
   -4.5525   -3.8722    0.0000 C   0  0  0  0  0  0  0  0  0  0  0  0
   -3.1950   -3.2341    0.0000 C   0  0  0  0  0  0  0  0  0  0  0  0
  1  2  1  0
  2  3  2  0
  3  4  1  0
  4  5  2  0
  4  6  1  0
  6  7  1  0
  7  8  1  0
  8  9  2  0
  9 10  1  0
 10 11  1  0
 10 12  2  0
 12 13  1  0
 12 14  1  0
 14 15  2  0
  3 16  1  0
 16 17  1  0
 16 18  2  0
 18 19  1  0
 19 20  1  0
 19 21  2  0
 21 22  1  0
 22 23  1  0
 23 24  1  0
 24 25  1  0
 25 26  1  0
 25 27  1  0
 27 28  1  0
 28 29  1  0
  7  1  1  0
 15  8  1  0
 29 23  1  0
 21  2  1  0
M  END
>  <IC50>  (116) 
63.63

>  <cmpdNO>  (116) 
120

$$$$

     RDKit          2D

 30 33  0  0  0  0  0  0  0  0999 V2000
    1.3273    0.2021    0.0000 O   0  0  0  0  0  0  0  0  0  0  0  0
    0.2136    1.2070    0.0000 C   0  0  0  0  0  0  0  0  0  0  0  0
    0.5270    2.6739    0.0000 C   0  0  0  0  0  0  0  0  0  0  0  0
    1.9541    3.1359    0.0000 C   0  0  0  0  0  0  0  0  0  0  0  0
    2.2675    4.6028    0.0000 O   0  0  0  0  0  0  0  0  0  0  0  0
    3.0678    2.1311    0.0000 C   0  0  0  0  0  0  0  0  0  0  0  0
    2.7543    0.6642    0.0000 C   0  0  0  0  0  0  0  0  0  0  0  0
    3.8680   -0.3407    0.0000 C   0  0  0  0  0  0  0  0  0  0  0  0
    3.5546   -1.8076    0.0000 C   0  0  0  0  0  0  0  0  0  0  0  0
    4.6682   -2.8125    0.0000 C   0  0  0  0  0  0  0  0  0  0  0  0
    4.3548   -4.2794    0.0000 O   0  0  0  0  0  0  0  0  0  0  0  0
    6.0953   -2.3504    0.0000 C   0  0  0  0  0  0  0  0  0  0  0  0
    7.2090   -3.3553    0.0000 O   0  0  0  0  0  0  0  0  0  0  0  0
    6.4087   -0.8836    0.0000 C   0  0  0  0  0  0  0  0  0  0  0  0
    5.2951    0.1213    0.0000 C   0  0  0  0  0  0  0  0  0  0  0  0
   -0.5866    3.6788    0.0000 C   0  0  0  0  0  0  0  0  0  0  0  0
   -0.2732    5.1457    0.0000 O   0  0  0  0  0  0  0  0  0  0  0  0
   -2.0137    3.2167    0.0000 C   0  0  0  0  0  0  0  0  0  0  0  0
   -2.3271    1.7499    0.0000 C   0  0  0  0  0  0  0  0  0  0  0  0
   -3.7542    1.2878    0.0000 O   0  0  0  0  0  0  0  0  0  0  0  0
   -1.2135    0.7450    0.0000 C   0  0  0  0  0  0  0  0  0  0  0  0
   -1.5269   -0.7219    0.0000 C   0  0  0  0  0  0  0  0  0  0  0  0
   -2.9539   -1.1839    0.0000 N   0  0  0  0  0  0  0  0  0  0  0  0
   -4.0676   -0.1791    0.0000 C   0  0  0  0  0  0  0  0  0  0  0  0
   -5.4947   -0.6411    0.0000 C   0  0  0  0  0  0  0  0  0  0  0  0
   -5.8081   -2.1080    0.0000 C   0  0  0  0  0  0  0  0  0  0  0  0
   -4.6944   -3.1128    0.0000 C   0  0  0  0  0  0  0  0  0  0  0  0
   -3.2674   -2.6508    0.0000 C   0  0  0  0  0  0  0  0  0  0  0  0
   -7.2352   -2.5700    0.0000 C   0  0  0  0  0  0  0  0  0  0  0  0
   -8.3488   -1.5651    0.0000 O   0  0  0  0  0  0  0  0  0  0  0  0
  1  2  1  0
  2  3  2  0
  3  4  1  0
  4  5  2  0
  4  6  1  0
  6  7  1  0
  7  8  1  0
  8  9  2  0
  9 10  1  0
 10 11  1  0
 10 12  2  0
 12 13  1  0
 12 14  1  0
 14 15  2  0
  3 16  1  0
 16 17  1  0
 16 18  2  0
 18 19  1  0
 19 20  1  0
 19 21  2  0
 21 22  1  0
 22 23  1  0
 23 24  1  0
 24 25  1  0
 25 26  1  0
 26 27  1  0
 27 28  1  0
 26 29  1  0
 29 30  1  0
  7  1  1  0
 15  8  1  0
 28 23  1  0
 21  2  1  0
M  END
>  <IC50>  (117) 
64.21

>  <cmpdNO>  (117) 
121

$$$$

     RDKit          2D

 28 31  0  0  0  0  0  0  0  0999 V2000
    0.7545    0.1663    0.0000 O   0  0  0  0  0  0  0  0  0  0  0  0
   -0.4939    0.9979    0.0000 C   0  0  0  0  0  0  0  0  0  0  0  0
   -0.3978    2.4949    0.0000 C   0  0  0  0  0  0  0  0  0  0  0  0
    0.9466    3.1602    0.0000 C   0  0  0  0  0  0  0  0  0  0  0  0
    1.0426    4.6571    0.0000 O   0  0  0  0  0  0  0  0  0  0  0  0
    2.1949    2.3285    0.0000 C   0  0  0  0  0  0  0  0  0  0  0  0
    2.0989    0.8316    0.0000 C   0  0  0  0  0  0  0  0  0  0  0  0
    3.3472    0.0000    0.0000 C   0  0  0  0  0  0  0  0  0  0  0  0
    3.2512   -1.4969    0.0000 C   0  0  0  0  0  0  0  0  0  0  0  0
    4.4996   -2.3285    0.0000 C   0  0  0  0  0  0  0  0  0  0  0  0
    4.4036   -3.8255    0.0000 O   0  0  0  0  0  0  0  0  0  0  0  0
    5.8440   -1.6632    0.0000 C   0  0  0  0  0  0  0  0  0  0  0  0
    7.0923   -2.4949    0.0000 O   0  0  0  0  0  0  0  0  0  0  0  0
    5.9400   -0.1663    0.0000 C   0  0  0  0  0  0  0  0  0  0  0  0
    4.6916    0.6653    0.0000 C   0  0  0  0  0  0  0  0  0  0  0  0
   -1.6462    3.3265    0.0000 C   0  0  0  0  0  0  0  0  0  0  0  0
   -1.5502    4.8234    0.0000 O   0  0  0  0  0  0  0  0  0  0  0  0
   -2.9906    2.6612    0.0000 C   0  0  0  0  0  0  0  0  0  0  0  0
   -3.0866    1.1643    0.0000 C   0  0  0  0  0  0  0  0  0  0  0  0
   -4.4310    0.4990    0.0000 O   0  0  0  0  0  0  0  0  0  0  0  0
   -1.8382    0.3326    0.0000 C   0  0  0  0  0  0  0  0  0  0  0  0
   -1.9343   -1.1643    0.0000 C   0  0  0  0  0  0  0  0  0  0  0  0
   -3.2787   -1.8296    0.0000 N   0  0  0  0  0  0  0  0  0  0  0  0
   -4.5270   -0.9979    0.0000 C   0  0  0  0  0  0  0  0  0  0  0  0
   -5.8714   -1.6632    0.0000 C   0  0  0  0  0  0  0  0  0  0  0  0
   -5.9674   -3.1602    0.0000 O   0  0  0  0  0  0  0  0  0  0  0  0
   -4.7191   -3.9918    0.0000 C   0  0  0  0  0  0  0  0  0  0  0  0
   -3.3747   -3.3265    0.0000 C   0  0  0  0  0  0  0  0  0  0  0  0
  1  2  1  0
  2  3  2  0
  3  4  1  0
  4  5  2  0
  4  6  1  0
  6  7  1  0
  7  8  1  0
  8  9  2  0
  9 10  1  0
 10 11  1  0
 10 12  2  0
 12 13  1  0
 12 14  1  0
 14 15  2  0
  3 16  1  0
 16 17  1  0
 16 18  2  0
 18 19  1  0
 19 20  1  0
 19 21  2  0
 21 22  1  0
 22 23  1  0
 23 24  1  0
 24 25  1  0
 25 26  1  0
 26 27  1  0
 27 28  1  0
  7  1  1  0
 15  8  1  0
 28 23  1  0
 21  2  1  0
M  END
>  <IC50>  (118) 
81.87

>  <cmpdNO>  (118) 
122

$$$$

     RDKit          2D

 29 32  0  0  0  0  0  0  0  0999 V2000
    1.0309    0.1986    0.0000 O   0  0  0  0  0  0  0  0  0  0  0  0
   -0.1303    1.1481    0.0000 C   0  0  0  0  0  0  0  0  0  0  0  0
    0.1113    2.6285    0.0000 C   0  0  0  0  0  0  0  0  0  0  0  0
    1.5142    3.1594    0.0000 C   0  0  0  0  0  0  0  0  0  0  0  0
    1.7559    4.6398    0.0000 O   0  0  0  0  0  0  0  0  0  0  0  0
    2.6755    2.2099    0.0000 C   0  0  0  0  0  0  0  0  0  0  0  0
    2.4338    0.7295    0.0000 C   0  0  0  0  0  0  0  0  0  0  0  0
    3.5951   -0.2200    0.0000 C   0  0  0  0  0  0  0  0  0  0  0  0
    3.3534   -1.7004    0.0000 C   0  0  0  0  0  0  0  0  0  0  0  0
    4.5147   -2.6499    0.0000 C   0  0  0  0  0  0  0  0  0  0  0  0
    4.2730   -4.1303    0.0000 O   0  0  0  0  0  0  0  0  0  0  0  0
    5.9176   -2.1189    0.0000 C   0  0  0  0  0  0  0  0  0  0  0  0
    7.0788   -3.0684    0.0000 O   0  0  0  0  0  0  0  0  0  0  0  0
    6.1592   -0.6385    0.0000 C   0  0  0  0  0  0  0  0  0  0  0  0
    4.9980    0.3110    0.0000 C   0  0  0  0  0  0  0  0  0  0  0  0
   -1.0499    3.5779    0.0000 C   0  0  0  0  0  0  0  0  0  0  0  0
   -0.8083    5.0584    0.0000 O   0  0  0  0  0  0  0  0  0  0  0  0
   -2.4528    3.0470    0.0000 C   0  0  0  0  0  0  0  0  0  0  0  0
   -2.6945    1.5666    0.0000 C   0  0  0  0  0  0  0  0  0  0  0  0
   -4.0973    1.0357    0.0000 O   0  0  0  0  0  0  0  0  0  0  0  0
   -1.5332    0.6171    0.0000 C   0  0  0  0  0  0  0  0  0  0  0  0
   -1.7749   -0.8633    0.0000 C   0  0  0  0  0  0  0  0  0  0  0  0
   -3.1778   -1.3942    0.0000 N   0  0  0  0  0  0  0  0  0  0  0  0
   -4.3390   -0.4447    0.0000 C   0  0  0  0  0  0  0  0  0  0  0  0
   -5.7419   -0.9757    0.0000 C   0  0  0  0  0  0  0  0  0  0  0  0
   -5.9835   -2.4561    0.0000 N   0  0  0  0  0  0  0  0  0  0  0  0
   -4.8223   -3.4055    0.0000 C   0  0  0  0  0  0  0  0  0  0  0  0
   -3.4194   -2.8746    0.0000 C   0  0  0  0  0  0  0  0  0  0  0  0
   -7.3864   -2.9870    0.0000 C   0  0  0  0  0  0  0  0  0  0  0  0
  1  2  1  0
  2  3  2  0
  3  4  1  0
  4  5  2  0
  4  6  1  0
  6  7  1  0
  7  8  1  0
  8  9  2  0
  9 10  1  0
 10 11  1  0
 10 12  2  0
 12 13  1  0
 12 14  1  0
 14 15  2  0
  3 16  1  0
 16 17  1  0
 16 18  2  0
 18 19  1  0
 19 20  1  0
 19 21  2  0
 21 22  1  0
 22 23  1  0
 23 24  1  0
 24 25  1  0
 25 26  1  0
 26 27  1  0
 27 28  1  0
 26 29  1  0
  7  1  1  0
 15  8  1  0
 28 23  1  0
 21  2  1  0
M  END
>  <IC50>  (119) 
53.82

>  <cmpdNO>  (119) 
123

$$$$

     RDKit          2D

 28 31  0  0  0  0  0  0  0  0999 V2000
    1.1843   -0.0267    0.0000 O   0  0  0  0  0  0  0  0  0  0  0  0
    0.0879    0.9969    0.0000 C   0  0  0  0  0  0  0  0  0  0  0  0
    0.4261    2.4583    0.0000 C   0  0  0  0  0  0  0  0  0  0  0  0
    1.8608    2.8960    0.0000 C   0  0  0  0  0  0  0  0  0  0  0  0
    2.1991    4.3574    0.0000 O   0  0  0  0  0  0  0  0  0  0  0  0
    2.9573    1.8724    0.0000 C   0  0  0  0  0  0  0  0  0  0  0  0
    2.6190    0.4111    0.0000 C   0  0  0  0  0  0  0  0  0  0  0  0
    3.7155   -0.6125    0.0000 C   0  0  0  0  0  0  0  0  0  0  0  0
    3.3773   -2.0739    0.0000 C   0  0  0  0  0  0  0  0  0  0  0  0
    4.4737   -3.0975    0.0000 C   0  0  0  0  0  0  0  0  0  0  0  0
    5.9084   -2.6598    0.0000 C   0  0  0  0  0  0  0  0  0  0  0  0
    7.0049   -3.6834    0.0000 O   0  0  0  0  0  0  0  0  0  0  0  0
    6.2467   -1.1984    0.0000 C   0  0  0  0  0  0  0  0  0  0  0  0
    5.1502   -0.1748    0.0000 C   0  0  0  0  0  0  0  0  0  0  0  0
   -0.6703    3.4819    0.0000 C   0  0  0  0  0  0  0  0  0  0  0  0
   -0.3321    4.9433    0.0000 O   0  0  0  0  0  0  0  0  0  0  0  0
   -2.1050    3.0442    0.0000 C   0  0  0  0  0  0  0  0  0  0  0  0
   -2.4433    1.5828    0.0000 C   0  0  0  0  0  0  0  0  0  0  0  0
   -3.8780    1.1450    0.0000 O   0  0  0  0  0  0  0  0  0  0  0  0
   -1.3468    0.5592    0.0000 C   0  0  0  0  0  0  0  0  0  0  0  0
   -1.6851   -0.9022    0.0000 C   0  0  0  0  0  0  0  0  0  0  0  0
   -3.1198   -1.3399    0.0000 N   0  0  0  0  0  0  0  0  0  0  0  0
   -4.2162   -0.3163    0.0000 C   0  0  0  0  0  0  0  0  0  0  0  0
   -5.6509   -0.7541    0.0000 C   0  0  0  0  0  0  0  0  0  0  0  0
   -5.9892   -2.2154    0.0000 C   0  0  0  0  0  0  0  0  0  0  0  0
   -7.4239   -2.6532    0.0000 O   0  0  0  0  0  0  0  0  0  0  0  0
   -4.8927   -3.2391    0.0000 C   0  0  0  0  0  0  0  0  0  0  0  0
   -3.4580   -2.8013    0.0000 C   0  0  0  0  0  0  0  0  0  0  0  0
  1  2  1  0
  2  3  2  0
  3  4  1  0
  4  5  2  0
  4  6  1  0
  6  7  1  0
  7  8  1  0
  8  9  2  0
  9 10  1  0
 10 11  2  0
 11 12  1  0
 11 13  1  0
 13 14  2  0
  3 15  1  0
 15 16  1  0
 15 17  2  0
 17 18  1  0
 18 19  1  0
 18 20  2  0
 20 21  1  0
 21 22  1  0
 22 23  1  0
 23 24  1  0
 24 25  1  0
 25 26  1  0
 25 27  1  0
 27 28  1  0
  7  1  1  0
 14  8  1  0
 28 22  1  0
 20  2  1  0
M  END
>  <IC50>  (120) 
167.52

>  <cmpdNO>  (120) 
124

$$$$

     RDKit          2D

 51 56  0  0  0  0  0  0  0  0999 V2000
    0.8391    0.2779    0.0000 O   0  0  0  0  0  0  0  0  0  0  0  0
   -0.3766    1.1566    0.0000 C   0  0  0  0  0  0  0  0  0  0  0  0
   -0.2235    2.6487    0.0000 C   0  0  0  0  0  0  0  0  0  0  0  0
    1.1453    3.2622    0.0000 C   0  0  0  0  0  0  0  0  0  0  0  0
    1.2985    4.7543    0.0000 O   0  0  0  0  0  0  0  0  0  0  0  0
    2.3610    2.3835    0.0000 C   0  0  0  0  0  0  0  0  0  0  0  0
    2.2079    0.8913    0.0000 C   0  0  0  0  0  0  0  0  0  0  0  0
    3.4236    0.0126    0.0000 C   0  0  0  0  0  0  0  0  0  0  0  0
    3.2704   -1.4796    0.0000 C   0  0  0  0  0  0  0  0  0  0  0  0
    4.4861   -2.3583    0.0000 C   0  0  0  0  0  0  0  0  0  0  0  0
    4.3329   -3.8504    0.0000 O   0  0  0  0  0  0  0  0  0  0  0  0
    5.8549   -1.7448    0.0000 C   0  0  0  0  0  0  0  0  0  0  0  0
    7.0706   -2.6235    0.0000 O   0  0  0  0  0  0  0  0  0  0  0  0
    6.0081   -0.2527    0.0000 C   0  0  0  0  0  0  0  0  0  0  0  0
    4.7924    0.6261    0.0000 C   0  0  0  0  0  0  0  0  0  0  0  0
   -1.4392    3.5274    0.0000 C   0  0  0  0  0  0  0  0  0  0  0  0
   -1.2860    5.0196    0.0000 O   0  0  0  0  0  0  0  0  0  0  0  0
   -2.8080    2.9140    0.0000 C   0  0  0  0  0  0  0  0  0  0  0  0
   -2.9611    1.4218    0.0000 C   0  0  0  0  0  0  0  0  0  0  0  0
   -4.3299    0.8084    0.0000 O   0  0  0  0  0  0  0  0  0  0  0  0
   -1.7454    0.5431    0.0000 C   0  0  0  0  0  0  0  0  0  0  0  0
   -1.8986   -0.9490    0.0000 C   0  0  0  0  0  0  0  0  0  0  0  0
   -3.2674   -1.5625    0.0000 N   0  0  0  0  0  0  0  0  0  0  0  0
   -4.4831   -0.6838    0.0000 C   0  0  0  0  0  0  0  0  0  0  0  0
   -5.8519   -1.2972    0.0000 C   0  0  0  0  0  0  0  0  0  0  0  0
   -6.0051   -2.7894    0.0000 C   0  0  0  0  0  0  0  0  0  0  0  0
   -4.7894   -3.6681    0.0000 C   0  0  0  0  0  0  0  0  0  0  0  0
   -3.4206   -3.0547    0.0000 C   0  0  0  0  0  0  0  0  0  0  0  0
   -2.2049   -3.9334    0.0000 C   0  0  0  0  0  0  0  0  0  0  0  0
   -0.2068    8.4541    0.0000 O   0  0  0  0  0  0  0  0  0  0  0  0
   -1.6992    8.6046    0.0000 C   0  0  0  0  0  0  0  0  0  0  0  0
   -2.3151    9.9723    0.0000 C   0  0  0  0  0  0  0  0  0  0  0  0
   -1.4385   11.1895    0.0000 C   0  0  0  0  0  0  0  0  0  0  0  0
   -2.0544   12.5573    0.0000 O   0  0  0  0  0  0  0  0  0  0  0  0
    0.0539   11.0390    0.0000 C   0  0  0  0  0  0  0  0  0  0  0  0
    0.6698    9.6713    0.0000 C   0  0  0  0  0  0  0  0  0  0  0  0
    2.1622    9.5208    0.0000 C   0  0  0  0  0  0  0  0  0  0  0  0
    2.7781    8.1530    0.0000 C   0  0  0  0  0  0  0  0  0  0  0  0
    4.2705    8.0025    0.0000 C   0  0  0  0  0  0  0  0  0  0  0  0
    4.8864    6.6348    0.0000 O   0  0  0  0  0  0  0  0  0  0  0  0
    5.1471    9.2197    0.0000 C   0  0  0  0  0  0  0  0  0  0  0  0
    6.6395    9.0692    0.0000 O   0  0  0  0  0  0  0  0  0  0  0  0
    4.5312   10.5875    0.0000 C   0  0  0  0  0  0  0  0  0  0  0  0
    3.0388   10.7380    0.0000 C   0  0  0  0  0  0  0  0  0  0  0  0
   -3.8075   10.1228    0.0000 C   0  0  0  0  0  0  0  0  0  0  0  0
   -4.4234   11.4905    0.0000 O   0  0  0  0  0  0  0  0  0  0  0  0
   -4.6841    8.9056    0.0000 C   0  0  0  0  0  0  0  0  0  0  0  0
   -4.0682    7.5378    0.0000 C   0  0  0  0  0  0  0  0  0  0  0  0
   -4.9448    6.3206    0.0000 O   0  0  0  0  0  0  0  0  0  0  0  0
   -2.5758    7.3873    0.0000 C   0  0  0  0  0  0  0  0  0  0  0  0
   -1.9599    6.0196    0.0000 C   0  0  0  0  0  0  0  0  0  0  0  0
  1  2  1  0
  2  3  2  0
  3  4  1  0
  4  5  2  0
  4  6  1  0
  6  7  1  0
  7  8  1  0
  8  9  2  0
  9 10  1  0
 10 11  1  0
 10 12  2  0
 12 13  1  0
 12 14  1  0
 14 15  2  0
  3 16  1  0
 16 17  1  0
 16 18  2  0
 18 19  1  0
 19 20  1  0
 19 21  2  0
 21 22  1  0
 22 23  1  0
 23 24  1  0
 24 25  1  0
 25 26  1  0
 26 27  1  0
 27 28  1  0
 28 29  1  0
 30 31  1  0
 31 32  2  0
 32 33  1  0
 33 34  2  0
 33 35  1  0
 35 36  1  0
 36 37  1  0
 37 38  2  0
 38 39  1  0
 39 40  1  0
 39 41  2  0
 41 42  1  0
 41 43  1  0
 43 44  2  0
 32 45  1  0
 45 46  1  0
 45 47  2  0
 47 48  1  0
 48 49  1  0
 48 50  2  0
 50 51  1  0
  7  1  1  0
 15  8  1  0
 28 23  1  0
 36 30  1  0
 44 37  1  0
 21  2  1  0
 50 31  1  0
M  END
>  <IC50>  (121) 
161.18

>  <cmpdNO>  (121) 
125

$$$$

     RDKit          2D

 27 30  0  0  0  0  0  0  0  0999 V2000
    0.9169   -0.0444    0.0000 O   0  0  0  0  0  0  0  0  0  0  0  0
   -0.2654    0.8787    0.0000 C   0  0  0  0  0  0  0  0  0  0  0  0
   -0.0571    2.3642    0.0000 C   0  0  0  0  0  0  0  0  0  0  0  0
    1.3335    2.9265    0.0000 C   0  0  0  0  0  0  0  0  0  0  0  0
    1.5418    4.4120    0.0000 O   0  0  0  0  0  0  0  0  0  0  0  0
    2.5158    2.0034    0.0000 C   0  0  0  0  0  0  0  0  0  0  0  0
    2.3075    0.5179    0.0000 C   0  0  0  0  0  0  0  0  0  0  0  0
    3.4898   -0.4052    0.0000 C   0  0  0  0  0  0  0  0  0  0  0  0
    3.2814   -1.8907    0.0000 C   0  0  0  0  0  0  0  0  0  0  0  0
    4.4637   -2.8138    0.0000 C   0  0  0  0  0  0  0  0  0  0  0  0
    5.8543   -2.2515    0.0000 C   0  0  0  0  0  0  0  0  0  0  0  0
    7.0366   -3.1747    0.0000 O   0  0  0  0  0  0  0  0  0  0  0  0
    6.0627   -0.7661    0.0000 C   0  0  0  0  0  0  0  0  0  0  0  0
    4.8804    0.1571    0.0000 C   0  0  0  0  0  0  0  0  0  0  0  0
   -1.2394    3.2873    0.0000 C   0  0  0  0  0  0  0  0  0  0  0  0
   -1.0311    4.7728    0.0000 O   0  0  0  0  0  0  0  0  0  0  0  0
   -2.6300    2.7250    0.0000 C   0  0  0  0  0  0  0  0  0  0  0  0
   -2.8383    1.2395    0.0000 C   0  0  0  0  0  0  0  0  0  0  0  0
   -4.2289    0.6772    0.0000 O   0  0  0  0  0  0  0  0  0  0  0  0
   -1.6560    0.3164    0.0000 C   0  0  0  0  0  0  0  0  0  0  0  0
   -1.8644   -1.1691    0.0000 C   0  0  0  0  0  0  0  0  0  0  0  0
   -3.2550   -1.7314    0.0000 N   0  0  0  0  0  0  0  0  0  0  0  0
   -4.4373   -0.8083    0.0000 C   0  0  0  0  0  0  0  0  0  0  0  0
   -5.8279   -1.3706    0.0000 C   0  0  0  0  0  0  0  0  0  0  0  0
   -6.0362   -2.8561    0.0000 O   0  0  0  0  0  0  0  0  0  0  0  0
   -4.8539   -3.7792    0.0000 C   0  0  0  0  0  0  0  0  0  0  0  0
   -3.4633   -3.2169    0.0000 C   0  0  0  0  0  0  0  0  0  0  0  0
  1  2  1  0
  2  3  2  0
  3  4  1  0
  4  5  2  0
  4  6  1  0
  6  7  1  0
  7  8  1  0
  8  9  2  0
  9 10  1  0
 10 11  2  0
 11 12  1  0
 11 13  1  0
 13 14  2  0
  3 15  1  0
 15 16  1  0
 15 17  2  0
 17 18  1  0
 18 19  1  0
 18 20  2  0
 20 21  1  0
 21 22  1  0
 22 23  1  0
 23 24  1  0
 24 25  1  0
 25 26  1  0
 26 27  1  0
  7  1  1  0
 14  8  1  0
 27 22  1  0
 20  2  1  0
M  END
>  <IC50>  (122) 
50.49

>  <cmpdNO>  (122) 
126

$$$$

     RDKit          2D

 28 31  0  0  0  0  0  0  0  0999 V2000
    1.1668   -0.0410    0.0000 O   0  0  0  0  0  0  0  0  0  0  0  0
   -0.0054    0.8948    0.0000 C   0  0  0  0  0  0  0  0  0  0  0  0
    0.2189    2.3779    0.0000 C   0  0  0  0  0  0  0  0  0  0  0  0
    1.6155    2.9252    0.0000 C   0  0  0  0  0  0  0  0  0  0  0  0
    1.8399    4.4083    0.0000 O   0  0  0  0  0  0  0  0  0  0  0  0
    2.7878    1.9894    0.0000 C   0  0  0  0  0  0  0  0  0  0  0  0
    2.5634    0.5062    0.0000 C   0  0  0  0  0  0  0  0  0  0  0  0
    3.7357   -0.4296    0.0000 C   0  0  0  0  0  0  0  0  0  0  0  0
    3.5114   -1.9127    0.0000 C   0  0  0  0  0  0  0  0  0  0  0  0
    4.6836   -2.8486    0.0000 C   0  0  0  0  0  0  0  0  0  0  0  0
    6.0802   -2.3013    0.0000 C   0  0  0  0  0  0  0  0  0  0  0  0
    7.2525   -3.2371    0.0000 O   0  0  0  0  0  0  0  0  0  0  0  0
    6.3046   -0.8182    0.0000 C   0  0  0  0  0  0  0  0  0  0  0  0
    5.1323    0.1177    0.0000 C   0  0  0  0  0  0  0  0  0  0  0  0
   -0.9533    3.3138    0.0000 C   0  0  0  0  0  0  0  0  0  0  0  0
   -0.7290    4.7969    0.0000 O   0  0  0  0  0  0  0  0  0  0  0  0
   -2.3499    2.7665    0.0000 C   0  0  0  0  0  0  0  0  0  0  0  0
   -2.5743    1.2834    0.0000 C   0  0  0  0  0  0  0  0  0  0  0  0
   -3.9709    0.7361    0.0000 O   0  0  0  0  0  0  0  0  0  0  0  0
   -1.4020    0.3475    0.0000 C   0  0  0  0  0  0  0  0  0  0  0  0
   -1.6264   -1.1356    0.0000 C   0  0  0  0  0  0  0  0  0  0  0  0
   -3.0229   -1.6829    0.0000 N   0  0  0  0  0  0  0  0  0  0  0  0
   -4.1952   -0.7470    0.0000 C   0  0  0  0  0  0  0  0  0  0  0  0
   -5.5918   -1.2943    0.0000 C   0  0  0  0  0  0  0  0  0  0  0  0
   -5.8161   -2.7775    0.0000 C   0  0  0  0  0  0  0  0  0  0  0  0
   -4.6439   -3.7133    0.0000 C   0  0  0  0  0  0  0  0  0  0  0  0
   -3.2473   -3.1660    0.0000 C   0  0  0  0  0  0  0  0  0  0  0  0
   -6.7641   -0.3585    0.0000 C   0  0  0  0  0  0  0  0  0  0  0  0
  1  2  1  0
  2  3  2  0
  3  4  1  0
  4  5  2  0
  4  6  1  0
  6  7  1  0
  7  8  1  0
  8  9  2  0
  9 10  1  0
 10 11  2  0
 11 12  1  0
 11 13  1  0
 13 14  2  0
  3 15  1  0
 15 16  1  0
 15 17  2  0
 17 18  1  0
 18 19  1  0
 18 20  2  0
 20 21  1  0
 21 22  1  0
 22 23  1  0
 23 24  1  0
 24 25  1  0
 25 26  1  0
 26 27  1  0
 24 28  1  0
  7  1  1  0
 14  8  1  0
 27 22  1  0
 20  2  1  0
M  END
>  <IC50>  (123) 
52.47

>  <cmpdNO>  (123) 
127

$$$$

     RDKit          2D

 29 32  0  0  0  0  0  0  0  0999 V2000
    1.2409    0.0625    0.0000 O   0  0  0  0  0  0  0  0  0  0  0  0
    0.0978    1.0337    0.0000 C   0  0  0  0  0  0  0  0  0  0  0  0
    0.3674    2.5093    0.0000 C   0  0  0  0  0  0  0  0  0  0  0  0
    1.7801    3.0136    0.0000 C   0  0  0  0  0  0  0  0  0  0  0  0
    2.0497    4.4892    0.0000 O   0  0  0  0  0  0  0  0  0  0  0  0
    2.9232    2.0423    0.0000 C   0  0  0  0  0  0  0  0  0  0  0  0
    2.6536    0.5667    0.0000 C   0  0  0  0  0  0  0  0  0  0  0  0
    3.7966   -0.4045    0.0000 C   0  0  0  0  0  0  0  0  0  0  0  0
    3.5270   -1.8801    0.0000 C   0  0  0  0  0  0  0  0  0  0  0  0
    4.6701   -2.8514    0.0000 C   0  0  0  0  0  0  0  0  0  0  0  0
    6.0828   -2.3471    0.0000 C   0  0  0  0  0  0  0  0  0  0  0  0
    7.2259   -3.3184    0.0000 O   0  0  0  0  0  0  0  0  0  0  0  0
    6.3524   -0.8715    0.0000 C   0  0  0  0  0  0  0  0  0  0  0  0
    5.2093    0.0997    0.0000 C   0  0  0  0  0  0  0  0  0  0  0  0
   -0.7756    3.4806    0.0000 C   0  0  0  0  0  0  0  0  0  0  0  0
   -0.5060    4.9562    0.0000 O   0  0  0  0  0  0  0  0  0  0  0  0
   -2.1883    2.9763    0.0000 C   0  0  0  0  0  0  0  0  0  0  0  0
   -2.4579    1.5007    0.0000 C   0  0  0  0  0  0  0  0  0  0  0  0
   -3.8706    0.9964    0.0000 O   0  0  0  0  0  0  0  0  0  0  0  0
   -1.3149    0.5294    0.0000 C   0  0  0  0  0  0  0  0  0  0  0  0
   -1.5845   -0.9461    0.0000 C   0  0  0  0  0  0  0  0  0  0  0  0
   -2.9972   -1.4504    0.0000 N   0  0  0  0  0  0  0  0  0  0  0  0
   -4.1403   -0.4791    0.0000 C   0  0  0  0  0  0  0  0  0  0  0  0
   -5.5529   -0.9834    0.0000 C   0  0  0  0  0  0  0  0  0  0  0  0
   -5.8226   -2.4590    0.0000 O   0  0  0  0  0  0  0  0  0  0  0  0
   -4.6795   -3.4303    0.0000 C   0  0  0  0  0  0  0  0  0  0  0  0
   -3.2668   -2.9260    0.0000 C   0  0  0  0  0  0  0  0  0  0  0  0
   -2.1237   -3.8973    0.0000 C   0  0  0  0  0  0  0  0  0  0  0  0
   -6.6960   -0.0121    0.0000 C   0  0  0  0  0  0  0  0  0  0  0  0
  1  2  1  0
  2  3  2  0
  3  4  1  0
  4  5  2  0
  4  6  1  0
  6  7  1  0
  7  8  1  0
  8  9  2  0
  9 10  1  0
 10 11  2  0
 11 12  1  0
 11 13  1  0
 13 14  2  0
  3 15  1  0
 15 16  1  0
 15 17  2  0
 17 18  1  0
 18 19  1  0
 18 20  2  0
 20 21  1  0
 21 22  1  0
 22 23  1  0
 23 24  1  0
 24 25  1  0
 25 26  1  0
 26 27  1  0
 27 28  1  0
 24 29  1  0
  7  1  1  0
 14  8  1  0
 27 22  1  0
 20  2  1  0
M  END
>  <IC50>  (124) 
63.59

>  <cmpdNO>  (124) 
128

$$$$

     RDKit          2D

 28 31  0  0  0  0  0  0  0  0999 V2000
    1.1843   -0.0267    0.0000 O   0  0  0  0  0  0  0  0  0  0  0  0
    0.0879    0.9969    0.0000 C   0  0  0  0  0  0  0  0  0  0  0  0
    0.4261    2.4583    0.0000 C   0  0  0  0  0  0  0  0  0  0  0  0
    1.8608    2.8960    0.0000 C   0  0  0  0  0  0  0  0  0  0  0  0
    2.1991    4.3574    0.0000 O   0  0  0  0  0  0  0  0  0  0  0  0
    2.9573    1.8724    0.0000 C   0  0  0  0  0  0  0  0  0  0  0  0
    2.6190    0.4111    0.0000 C   0  0  0  0  0  0  0  0  0  0  0  0
    3.7155   -0.6125    0.0000 C   0  0  0  0  0  0  0  0  0  0  0  0
    3.3773   -2.0739    0.0000 C   0  0  0  0  0  0  0  0  0  0  0  0
    4.4737   -3.0975    0.0000 C   0  0  0  0  0  0  0  0  0  0  0  0
    5.9084   -2.6598    0.0000 C   0  0  0  0  0  0  0  0  0  0  0  0
    7.0049   -3.6834    0.0000 O   0  0  0  0  0  0  0  0  0  0  0  0
    6.2467   -1.1984    0.0000 C   0  0  0  0  0  0  0  0  0  0  0  0
    5.1502   -0.1748    0.0000 C   0  0  0  0  0  0  0  0  0  0  0  0
   -0.6703    3.4819    0.0000 C   0  0  0  0  0  0  0  0  0  0  0  0
   -0.3321    4.9433    0.0000 O   0  0  0  0  0  0  0  0  0  0  0  0
   -2.1050    3.0442    0.0000 C   0  0  0  0  0  0  0  0  0  0  0  0
   -2.4433    1.5828    0.0000 C   0  0  0  0  0  0  0  0  0  0  0  0
   -3.8780    1.1450    0.0000 O   0  0  0  0  0  0  0  0  0  0  0  0
   -1.3468    0.5592    0.0000 C   0  0  0  0  0  0  0  0  0  0  0  0
   -1.6851   -0.9022    0.0000 C   0  0  0  0  0  0  0  0  0  0  0  0
   -3.1198   -1.3399    0.0000 N   0  0  0  0  0  0  0  0  0  0  0  0
   -4.2162   -0.3163    0.0000 C   0  0  0  0  0  0  0  0  0  0  0  0
   -5.6509   -0.7541    0.0000 C   0  0  0  0  0  0  0  0  0  0  0  0
   -5.9892   -2.2154    0.0000 C   0  0  0  0  0  0  0  0  0  0  0  0
   -4.8927   -3.2391    0.0000 C   0  0  0  0  0  0  0  0  0  0  0  0
   -3.4580   -2.8013    0.0000 C   0  0  0  0  0  0  0  0  0  0  0  0
   -7.4239   -2.6532    0.0000 C   0  0  0  0  0  0  0  0  0  0  0  0
  1  2  1  0
  2  3  2  0
  3  4  1  0
  4  5  2  0
  4  6  1  0
  6  7  1  0
  7  8  1  0
  8  9  2  0
  9 10  1  0
 10 11  2  0
 11 12  1  0
 11 13  1  0
 13 14  2  0
  3 15  1  0
 15 16  1  0
 15 17  2  0
 17 18  1  0
 18 19  1  0
 18 20  2  0
 20 21  1  0
 21 22  1  0
 22 23  1  0
 23 24  1  0
 24 25  1  0
 25 26  1  0
 26 27  1  0
 25 28  1  0
  7  1  1  0
 14  8  1  0
 27 22  1  0
 20  2  1  0
M  END
>  <IC50>  (125) 
164.49

>  <cmpdNO>  (125) 
129

$$$$

     RDKit          2D

 28 31  0  0  0  0  0  0  0  0999 V2000
    1.1843   -0.0267    0.0000 O   0  0  0  0  0  0  0  0  0  0  0  0
    0.0879    0.9969    0.0000 C   0  0  0  0  0  0  0  0  0  0  0  0
    0.4261    2.4583    0.0000 C   0  0  0  0  0  0  0  0  0  0  0  0
    1.8608    2.8960    0.0000 C   0  0  0  0  0  0  0  0  0  0  0  0
    2.1991    4.3574    0.0000 O   0  0  0  0  0  0  0  0  0  0  0  0
    2.9573    1.8724    0.0000 C   0  0  0  0  0  0  0  0  0  0  0  0
    2.6190    0.4111    0.0000 C   0  0  0  0  0  0  0  0  0  0  0  0
    3.7155   -0.6125    0.0000 C   0  0  0  0  0  0  0  0  0  0  0  0
    3.3773   -2.0739    0.0000 C   0  0  0  0  0  0  0  0  0  0  0  0
    4.4737   -3.0975    0.0000 C   0  0  0  0  0  0  0  0  0  0  0  0
    5.9084   -2.6598    0.0000 C   0  0  0  0  0  0  0  0  0  0  0  0
    7.0049   -3.6834    0.0000 O   0  0  0  0  0  0  0  0  0  0  0  0
    6.2467   -1.1984    0.0000 C   0  0  0  0  0  0  0  0  0  0  0  0
    5.1502   -0.1748    0.0000 C   0  0  0  0  0  0  0  0  0  0  0  0
   -0.6703    3.4819    0.0000 C   0  0  0  0  0  0  0  0  0  0  0  0
   -0.3321    4.9433    0.0000 O   0  0  0  0  0  0  0  0  0  0  0  0
   -2.1050    3.0442    0.0000 C   0  0  0  0  0  0  0  0  0  0  0  0
   -2.4433    1.5828    0.0000 C   0  0  0  0  0  0  0  0  0  0  0  0
   -3.8780    1.1450    0.0000 O   0  0  0  0  0  0  0  0  0  0  0  0
   -1.3468    0.5592    0.0000 C   0  0  0  0  0  0  0  0  0  0  0  0
   -1.6851   -0.9022    0.0000 C   0  0  0  0  0  0  0  0  0  0  0  0
   -3.1198   -1.3399    0.0000 N   0  0  0  0  0  0  0  0  0  0  0  0
   -4.2162   -0.3163    0.0000 C   0  0  0  0  0  0  0  0  0  0  0  0
   -5.6509   -0.7541    0.0000 C   0  0  0  0  0  0  0  0  0  0  0  0
   -5.9892   -2.2154    0.0000 N   0  0  0  0  0  0  0  0  0  0  0  0
   -4.8927   -3.2391    0.0000 C   0  0  0  0  0  0  0  0  0  0  0  0
   -3.4580   -2.8013    0.0000 C   0  0  0  0  0  0  0  0  0  0  0  0
   -7.4239   -2.6532    0.0000 C   0  0  0  0  0  0  0  0  0  0  0  0
  1  2  1  0
  2  3  2  0
  3  4  1  0
  4  5  2  0
  4  6  1  0
  6  7  1  0
  7  8  1  0
  8  9  2  0
  9 10  1  0
 10 11  2  0
 11 12  1  0
 11 13  1  0
 13 14  2  0
  3 15  1  0
 15 16  1  0
 15 17  2  0
 17 18  1  0
 18 19  1  0
 18 20  2  0
 20 21  1  0
 21 22  1  0
 22 23  1  0
 23 24  1  0
 24 25  1  0
 25 26  1  0
 26 27  1  0
 25 28  1  0
  7  1  1  0
 14  8  1  0
 27 22  1  0
 20  2  1  0
M  END
>  <IC50>  (126) 
148.4

>  <cmpdNO>  (126) 
130

$$$$

     RDKit          2D

 29 32  0  0  0  0  0  0  0  0999 V2000
    1.1066    0.1735    0.0000 O   0  0  0  0  0  0  0  0  0  0  0  0
    0.0313    1.2192    0.0000 C   0  0  0  0  0  0  0  0  0  0  0  0
    0.3992    2.6734    0.0000 C   0  0  0  0  0  0  0  0  0  0  0  0
    1.8426    3.0818    0.0000 C   0  0  0  0  0  0  0  0  0  0  0  0
    2.2105    4.5360    0.0000 O   0  0  0  0  0  0  0  0  0  0  0  0
    2.9179    2.0361    0.0000 C   0  0  0  0  0  0  0  0  0  0  0  0
    2.5500    0.5819    0.0000 C   0  0  0  0  0  0  0  0  0  0  0  0
    3.6253   -0.4638    0.0000 C   0  0  0  0  0  0  0  0  0  0  0  0
    3.2574   -1.9180    0.0000 C   0  0  0  0  0  0  0  0  0  0  0  0
    4.3327   -2.9638    0.0000 C   0  0  0  0  0  0  0  0  0  0  0  0
    5.7761   -2.5553    0.0000 C   0  0  0  0  0  0  0  0  0  0  0  0
    6.8514   -3.6011    0.0000 O   0  0  0  0  0  0  0  0  0  0  0  0
    6.1440   -1.1012    0.0000 C   0  0  0  0  0  0  0  0  0  0  0  0
    5.0687   -0.0554    0.0000 C   0  0  0  0  0  0  0  0  0  0  0  0
   -0.6761    3.7192    0.0000 C   0  0  0  0  0  0  0  0  0  0  0  0
   -0.3082    5.1733    0.0000 O   0  0  0  0  0  0  0  0  0  0  0  0
   -2.1195    3.3107    0.0000 C   0  0  0  0  0  0  0  0  0  0  0  0
   -2.4874    1.8566    0.0000 C   0  0  0  0  0  0  0  0  0  0  0  0
   -3.9307    1.4481    0.0000 O   0  0  0  0  0  0  0  0  0  0  0  0
   -1.4120    0.8108    0.0000 C   0  0  0  0  0  0  0  0  0  0  0  0
   -1.7800   -0.6434    0.0000 C   0  0  0  0  0  0  0  0  0  0  0  0
   -3.2233   -1.0518    0.0000 N   0  0  0  0  0  0  0  0  0  0  0  0
   -4.2987   -0.0060    0.0000 C   0  0  0  0  0  0  0  0  0  0  0  0
   -5.7420   -0.4144    0.0000 C   0  0  0  0  0  0  0  0  0  0  0  0
   -6.1100   -1.8686    0.0000 C   0  0  0  0  0  0  0  0  0  0  0  0
   -5.0346   -2.9144    0.0000 C   0  0  0  0  0  0  0  0  0  0  0  0
   -3.5913   -2.5059    0.0000 C   0  0  0  0  0  0  0  0  0  0  0  0
   -2.5159   -3.5517    0.0000 C   0  0  0  0  0  0  0  0  0  0  0  0
   -2.8839   -5.0059    0.0000 O   0  0  0  0  0  0  0  0  0  0  0  0
  1  2  1  0
  2  3  2  0
  3  4  1  0
  4  5  2  0
  4  6  1  0
  6  7  1  0
  7  8  1  0
  8  9  2  0
  9 10  1  0
 10 11  2  0
 11 12  1  0
 11 13  1  0
 13 14  2  0
  3 15  1  0
 15 16  1  0
 15 17  2  0
 17 18  1  0
 18 19  1  0
 18 20  2  0
 20 21  1  0
 21 22  1  0
 22 23  1  0
 23 24  1  0
 24 25  1  0
 25 26  1  0
 26 27  1  0
 27 28  1  0
 28 29  1  0
  7  1  1  0
 14  8  1  0
 27 22  1  0
 20  2  1  0
M  END
>  <IC50>  (127) 
49.71

>  <cmpdNO>  (127) 
131

$$$$

     RDKit          2D

 19 20  0  0  0  0  0  0  0  0999 V2000
   -2.9405   -2.9453    0.0000 O   0  0  0  0  0  0  0  0  0  0  0  0
   -3.2035   -1.4686    0.0000 C   0  0  0  0  0  0  0  0  0  0  0  0
   -2.1634   -0.3878    0.0000 N   0  0  0  0  0  0  0  0  0  0  0  0
   -2.8699    0.9354    0.0000 C   0  0  0  0  0  0  0  0  0  0  0  0
   -4.3467    0.6724    0.0000 C   0  0  0  0  0  0  0  0  0  0  0  0
   -4.5529   -0.8134    0.0000 C   0  0  0  0  0  0  0  0  0  0  0  0
   -0.6777   -0.5940    0.0000 C   0  0  0  0  0  0  0  0  0  0  0  0
   -0.1134   -1.9838    0.0000 C   0  0  0  0  0  0  0  0  0  0  0  0
    1.3724   -2.1900    0.0000 C   0  0  0  0  0  0  0  0  0  0  0  0
    2.2939   -1.0064    0.0000 C   0  0  0  0  0  0  0  0  0  0  0  0
    1.7296    0.3834    0.0000 C   0  0  0  0  0  0  0  0  0  0  0  0
    0.2438    0.5896    0.0000 C   0  0  0  0  0  0  0  0  0  0  0  0
   -0.3205    1.9794    0.0000 N   0  0  0  0  0  0  0  0  0  0  0  0
    0.6009    3.1630    0.0000 C   0  0  0  0  0  0  0  0  0  0  0  0
    0.0366    4.5528    0.0000 N   0  0  0  0  0  0  0  0  0  0  0  0
    2.0867    2.9568    0.0000 N   0  0  0  0  0  0  0  0  0  0  0  0
    3.7796   -1.2126    0.0000 C   0  0  0  0  0  0  0  0  0  0  0  0
    4.3439   -2.6024    0.0000 O   0  0  0  0  0  0  0  0  0  0  0  0
    4.7011   -0.0290    0.0000 O   0  0  0  0  0  0  0  0  0  0  0  0
  1  2  2  0
  2  3  1  0
  3  4  1  0
  4  5  1  0
  5  6  1  0
  3  7  1  0
  7  8  2  0
  8  9  1  0
  9 10  2  0
 10 11  1  0
 11 12  2  0
 12 13  1  0
 13 14  1  0
 14 15  1  0
 14 16  2  0
 10 17  1  0
 17 18  1  0
 17 19  2  0
  6  2  1  0
 12  7  1  0
M  END
>  <IC50>  (128) 
251.18

>  <cmpdNO>  (128) 
132

$$$$

     RDKit          2D

 21 22  0  0  0  0  0  0  0  0999 V2000
   -1.9530   -3.7150    0.0000 O   0  0  0  0  0  0  0  0  0  0  0  0
   -2.5203   -2.3264    0.0000 C   0  0  0  0  0  0  0  0  0  0  0  0
   -1.7303   -1.0513    0.0000 N   0  0  0  0  0  0  0  0  0  0  0  0
   -0.2343   -0.9409    0.0000 C   0  0  0  0  0  0  0  0  0  0  0  0
    0.6092   -2.1812    0.0000 C   0  0  0  0  0  0  0  0  0  0  0  0
    2.1051   -2.0708    0.0000 C   0  0  0  0  0  0  0  0  0  0  0  0
    2.7575   -0.7201    0.0000 C   0  0  0  0  0  0  0  0  0  0  0  0
    1.9140    0.5202    0.0000 C   0  0  0  0  0  0  0  0  0  0  0  0
    0.4180    0.4098    0.0000 C   0  0  0  0  0  0  0  0  0  0  0  0
   -0.4255    1.6501    0.0000 N   0  0  0  0  0  0  0  0  0  0  0  0
    0.2268    3.0008    0.0000 C   0  0  0  0  0  0  0  0  0  0  0  0
   -0.6167    4.2412    0.0000 N   0  0  0  0  0  0  0  0  0  0  0  0
    1.7228    3.1112    0.0000 N   0  0  0  0  0  0  0  0  0  0  0  0
    4.2535   -0.6098    0.0000 C   0  0  0  0  0  0  0  0  0  0  0  0
    5.0970   -1.8501    0.0000 O   0  0  0  0  0  0  0  0  0  0  0  0
    4.9058    0.7409    0.0000 O   0  0  0  0  0  0  0  0  0  0  0  0
   -2.6989    0.0941    0.0000 C   0  0  0  0  0  0  0  0  0  0  0  0
   -4.0875   -0.4732    0.0000 C   0  0  0  0  0  0  0  0  0  0  0  0
   -3.9771   -1.9691    0.0000 C   0  0  0  0  0  0  0  0  0  0  0  0
   -2.3416    1.5509    0.0000 C   0  0  0  0  0  0  0  0  0  0  0  0
   -3.4246    2.5887    0.0000 N   0  0  0  0  0  0  0  0  0  0  0  0
  1  2  2  0
  2  3  1  0
  3  4  1  0
  4  5  2  0
  5  6  1  0
  6  7  2  0
  7  8  1  0
  8  9  2  0
  9 10  1  0
 10 11  1  0
 11 12  1  0
 11 13  2  0
  7 14  1  0
 14 15  1  0
 14 16  2  0
  3 17  1  0
 17 18  1  0
 18 19  1  0
 17 20  1  0
 20 21  1  0
 19  2  1  0
  9  4  1  0
M  END
>  <IC50>  (129) 
2570

>  <cmpdNO>  (129) 
133

$$$$

     RDKit          2D

 19 20  0  0  0  0  0  0  0  0999 V2000
   -1.4510   -3.3935    0.0000 O   0  0  0  0  0  0  0  0  0  0  0  0
   -2.1334   -2.0577    0.0000 C   0  0  0  0  0  0  0  0  0  0  0  0
   -1.4539   -0.7205    0.0000 N   0  0  0  0  0  0  0  0  0  0  0  0
   -2.5157    0.3390    0.0000 C   0  0  0  0  0  0  0  0  0  0  0  0
   -3.8514   -0.3434    0.0000 C   0  0  0  0  0  0  0  0  0  0  0  0
   -3.6152   -1.8247    0.0000 C   0  0  0  0  0  0  0  0  0  0  0  0
   -3.3340    1.5962    0.0000 C   0  0  0  0  0  0  0  0  0  0  0  0
   -2.6544    2.9334    0.0000 O   0  0  0  0  0  0  0  0  0  0  0  0
   -1.3510    1.2843    0.0000 C   0  0  0  0  0  0  0  0  0  0  0  0
   -1.5872    2.7655    0.0000 O   0  0  0  0  0  0  0  0  0  0  0  0
    0.0274   -0.4843    0.0000 C   0  0  0  0  0  0  0  0  0  0  0  0
    0.9726   -1.6490    0.0000 C   0  0  0  0  0  0  0  0  0  0  0  0
    2.4539   -1.4127    0.0000 C   0  0  0  0  0  0  0  0  0  0  0  0
    2.9900   -0.0118    0.0000 C   0  0  0  0  0  0  0  0  0  0  0  0
    2.0447    1.1529    0.0000 C   0  0  0  0  0  0  0  0  0  0  0  0
    0.5635    0.9167    0.0000 C   0  0  0  0  0  0  0  0  0  0  0  0
    4.4713    0.2245    0.0000 C   0  0  0  0  0  0  0  0  0  0  0  0
    5.4165   -0.9402    0.0000 O   0  0  0  0  0  0  0  0  0  0  0  0
    5.0073    1.6254    0.0000 O   0  0  0  0  0  0  0  0  0  0  0  0
  1  2  2  0
  2  3  1  0
  3  4  1  0
  4  5  1  0
  5  6  1  0
  4  7  1  0
  7  8  1  0
  4  9  1  0
  9 10  1  0
  3 11  1  0
 11 12  2  0
 12 13  1  0
 13 14  2  0
 14 15  1  0
 15 16  2  0
 14 17  1  0
 17 18  1  0
 17 19  2  0
  6  2  1  0
 16 11  1  0
M  END
>  <IC50>  (130) 
758.58

>  <cmpdNO>  (130) 
134

$$$$

     RDKit          2D

 21 22  0  0  0  0  0  0  0  0999 V2000
   -4.2193   -1.9124    0.0000 O   0  0  0  0  0  0  0  0  0  0  0  0
   -3.8813   -0.4510    0.0000 C   0  0  0  0  0  0  0  0  0  0  0  0
   -2.5003    0.1345    0.0000 N   0  0  0  0  0  0  0  0  0  0  0  0
   -2.6304    1.6289    0.0000 C   0  0  0  0  0  0  0  0  0  0  0  0
   -4.0919    1.9669    0.0000 C   0  0  0  0  0  0  0  0  0  0  0  0
   -4.8649    0.6815    0.0000 C   0  0  0  0  0  0  0  0  0  0  0  0
   -1.2149   -0.6385    0.0000 C   0  0  0  0  0  0  0  0  0  0  0  0
   -1.2416   -2.1383    0.0000 C   0  0  0  0  0  0  0  0  0  0  0  0
    0.0438   -2.9114    0.0000 C   0  0  0  0  0  0  0  0  0  0  0  0
    1.3560   -2.1847    0.0000 C   0  0  0  0  0  0  0  0  0  0  0  0
    1.3828   -0.6849    0.0000 C   0  0  0  0  0  0  0  0  0  0  0  0
    0.0974    0.0882    0.0000 C   0  0  0  0  0  0  0  0  0  0  0  0
    0.1241    1.5879    0.0000 N   0  0  0  0  0  0  0  0  0  0  0  0
    1.4364    2.3146    0.0000 C   0  0  0  0  0  0  0  0  0  0  0  0
    1.4631    3.8144    0.0000 C   0  0  0  0  0  0  0  0  0  0  0  0
    2.7754    4.5410    0.0000 C   0  0  0  0  0  0  0  0  0  0  0  0
    2.7218    1.5415    0.0000 C   0  0  0  0  0  0  0  0  0  0  0  0
    4.0340    2.2682    0.0000 C   0  0  0  0  0  0  0  0  0  0  0  0
    2.6415   -2.9578    0.0000 C   0  0  0  0  0  0  0  0  0  0  0  0
    2.6147   -4.4575    0.0000 O   0  0  0  0  0  0  0  0  0  0  0  0
    3.9537   -2.2311    0.0000 O   0  0  0  0  0  0  0  0  0  0  0  0
  1  2  2  0
  2  3  1  0
  3  4  1  0
  4  5  1  0
  5  6  1  0
  3  7  1  0
  7  8  2  0
  8  9  1  0
  9 10  2  0
 10 11  1  0
 11 12  2  0
 12 13  1  0
 13 14  1  0
 14 15  1  0
 15 16  1  0
 14 17  1  0
 17 18  1  0
 10 19  1  0
 19 20  1  0
 19 21  2  0
  6  2  1  0
 12  7  1  0
M  END
>  <IC50>  (131) 
223.87

>  <cmpdNO>  (131) 
135

$$$$

     RDKit          2D

 21 22  0  0  0  0  0  0  0  0999 V2000
   -1.9530   -3.7150    0.0000 O   0  0  0  0  0  0  0  0  0  0  0  0
   -2.5203   -2.3264    0.0000 C   0  0  0  0  0  0  0  0  0  0  0  0
   -1.7303   -1.0513    0.0000 N   0  0  0  0  0  0  0  0  0  0  0  0
   -0.2343   -0.9409    0.0000 C   0  0  0  0  0  0  0  0  0  0  0  0
    0.6092   -2.1812    0.0000 C   0  0  0  0  0  0  0  0  0  0  0  0
    2.1051   -2.0708    0.0000 C   0  0  0  0  0  0  0  0  0  0  0  0
    2.7575   -0.7201    0.0000 C   0  0  0  0  0  0  0  0  0  0  0  0
    1.9140    0.5202    0.0000 C   0  0  0  0  0  0  0  0  0  0  0  0
    0.4180    0.4098    0.0000 C   0  0  0  0  0  0  0  0  0  0  0  0
   -0.4255    1.6501    0.0000 N   0  0  0  0  0  0  0  0  0  0  0  0
    0.2268    3.0008    0.0000 C   0  0  0  0  0  0  0  0  0  0  0  0
   -0.6167    4.2412    0.0000 N   0  0  0  0  0  0  0  0  0  0  0  0
    1.7228    3.1112    0.0000 N   0  0  0  0  0  0  0  0  0  0  0  0
    4.2535   -0.6098    0.0000 C   0  0  0  0  0  0  0  0  0  0  0  0
    5.0970   -1.8501    0.0000 O   0  0  0  0  0  0  0  0  0  0  0  0
    4.9058    0.7409    0.0000 O   0  0  0  0  0  0  0  0  0  0  0  0
   -2.6989    0.0941    0.0000 C   0  0  0  0  0  0  0  0  0  0  0  0
   -4.0875   -0.4732    0.0000 C   0  0  0  0  0  0  0  0  0  0  0  0
   -3.9771   -1.9691    0.0000 C   0  0  0  0  0  0  0  0  0  0  0  0
   -2.3416    1.5509    0.0000 C   0  0  0  0  0  0  0  0  0  0  0  0
   -3.4246    2.5887    0.0000 O   0  0  0  0  0  0  0  0  0  0  0  0
  1  2  2  0
  2  3  1  0
  3  4  1  0
  4  5  2  0
  5  6  1  0
  6  7  2  0
  7  8  1  0
  8  9  2  0
  9 10  1  0
 10 11  1  0
 11 12  1  0
 11 13  2  0
  7 14  1  0
 14 15  1  0
 14 16  2  0
  3 17  1  0
 17 18  1  0
 18 19  1  0
 17 20  1  0
 20 21  1  0
 19  2  1  0
  9  4  1  0
M  END
>  <IC50>  (132) 
19.95

>  <cmpdNO>  (132) 
136

$$$$

     RDKit          2D

 23 24  0  0  0  0  0  0  0  0999 V2000
   -1.5328   -3.8817    0.0000 O   0  0  0  0  0  0  0  0  0  0  0  0
   -2.1636   -2.5208    0.0000 C   0  0  0  0  0  0  0  0  0  0  0  0
   -1.4334   -1.2106    0.0000 N   0  0  0  0  0  0  0  0  0  0  0  0
    0.0558   -1.0312    0.0000 C   0  0  0  0  0  0  0  0  0  0  0  0
    0.9558   -2.2312    0.0000 C   0  0  0  0  0  0  0  0  0  0  0  0
    2.4451   -2.0517    0.0000 C   0  0  0  0  0  0  0  0  0  0  0  0
    3.0343   -0.6723    0.0000 C   0  0  0  0  0  0  0  0  0  0  0  0
    2.1343    0.5277    0.0000 C   0  0  0  0  0  0  0  0  0  0  0  0
    0.6451    0.3483    0.0000 C   0  0  0  0  0  0  0  0  0  0  0  0
   -0.2549    1.5483    0.0000 N   0  0  0  0  0  0  0  0  0  0  0  0
    0.3343    2.9277    0.0000 C   0  0  0  0  0  0  0  0  0  0  0  0
   -0.5656    4.1277    0.0000 N   0  0  0  0  0  0  0  0  0  0  0  0
    1.8236    3.1071    0.0000 N   0  0  0  0  0  0  0  0  0  0  0  0
    4.5235   -0.4929    0.0000 C   0  0  0  0  0  0  0  0  0  0  0  0
    5.4235   -1.6929    0.0000 O   0  0  0  0  0  0  0  0  0  0  0  0
    5.1128    0.8865    0.0000 O   0  0  0  0  0  0  0  0  0  0  0  0
   -2.4539   -0.1112    0.0000 C   0  0  0  0  0  0  0  0  0  0  0  0
   -3.8148   -0.7420    0.0000 C   0  0  0  0  0  0  0  0  0  0  0  0
   -3.6354   -2.2313    0.0000 C   0  0  0  0  0  0  0  0  0  0  0  0
   -3.2235    1.1763    0.0000 C   0  0  0  0  0  0  0  0  0  0  0  0
   -4.7233    1.1535    0.0000 O   0  0  0  0  0  0  0  0  0  0  0  0
   -1.2539    0.7888    0.0000 C   0  0  0  0  0  0  0  0  0  0  0  0
   -1.4333    2.2780    0.0000 O   0  0  0  0  0  0  0  0  0  0  0  0
  1  2  2  0
  2  3  1  0
  3  4  1  0
  4  5  2  0
  5  6  1  0
  6  7  2  0
  7  8  1  0
  8  9  2  0
  9 10  1  0
 10 11  1  0
 11 12  1  0
 11 13  2  0
  7 14  1  0
 14 15  1  0
 14 16  2  0
  3 17  1  0
 17 18  1  0
 18 19  1  0
 17 20  1  0
 20 21  1  0
 17 22  1  0
 22 23  1  0
 19  2  1  0
  9  4  1  0
M  END
>  <IC50>  (133) 
5.01

>  <cmpdNO>  (133) 
137

$$$$

     RDKit          2D

 18 18  0  0  0  0  0  0  0  0999 V2000
    1.6128   -0.5678    0.0000 O   0  0  0  0  0  0  0  0  0  0  0  0
    1.8265   -2.0525    0.0000 C   0  0  0  0  0  0  0  0  0  0  0  0
    3.2191   -2.6098    0.0000 O   0  0  0  0  0  0  0  0  0  0  0  0
    3.4327   -4.0945    0.0000 C   0  0  0  0  0  0  0  0  0  0  0  0
    0.2202   -0.0104    0.0000 C   0  0  0  0  0  0  0  0  0  0  0  0
   -0.9588   -0.9378    0.0000 C   0  0  0  0  0  0  0  0  0  0  0  0
   -2.3514   -0.3804    0.0000 C   0  0  0  0  0  0  0  0  0  0  0  0
   -2.5650    1.1043    0.0000 C   0  0  0  0  0  0  0  0  0  0  0  0
   -1.3860    2.0317    0.0000 C   0  0  0  0  0  0  0  0  0  0  0  0
   -1.5996    3.5164    0.0000 N   0  0  0  0  0  0  0  0  0  0  0  0
    0.0066    1.4743    0.0000 C   0  0  0  0  0  0  0  0  0  0  0  0
    1.1856    2.4017    0.0000 N   0  0  0  0  0  0  0  0  0  0  0  0
    2.5782    1.8443    0.0000 C   0  0  0  0  0  0  0  0  0  0  0  0
    2.7918    0.3596    0.0000 O   0  0  0  0  0  0  0  0  0  0  0  0
    3.7572    2.7717    0.0000 C   0  0  0  0  0  0  0  0  0  0  0  0
   -3.5303   -1.3078    0.0000 C   0  0  0  0  0  0  0  0  0  0  0  0
   -4.9230   -0.7504    0.0000 O   0  0  0  0  0  0  0  0  0  0  0  0
   -3.3167   -2.7925    0.0000 O   0  0  0  0  0  0  0  0  0  0  0  0
  1  2  1  0
  2  3  1  0
  3  4  1  0
  1  5  1  0
  5  6  1  0
  6  7  2  0
  7  8  1  0
  8  9  1  0
  9 10  1  0
  9 11  1  0
 11 12  1  0
 12 13  1  0
 13 14  2  0
 13 15  1  0
  7 16  1  0
 16 17  1  0
 16 18  2  0
 11  5  1  0
M  END
>  <IC50>  (134) 
1.995

>  <cmpdNO>  (134) 
138

$$$$

     RDKit          2D

 15 15  0  0  0  0  0  0  0  0999 V2000
    1.4643   -1.9813    0.0000 O   0  0  0  0  0  0  0  0  0  0  0  0
    0.4506   -0.8758    0.0000 C   0  0  0  0  0  0  0  0  0  0  0  0
   -1.0138   -1.2009    0.0000 C   0  0  0  0  0  0  0  0  0  0  0  0
   -2.0275   -0.0954    0.0000 C   0  0  0  0  0  0  0  0  0  0  0  0
   -1.5770    1.3353    0.0000 C   0  0  0  0  0  0  0  0  0  0  0  0
   -0.1126    1.6605    0.0000 C   0  0  0  0  0  0  0  0  0  0  0  0
    0.3379    3.0912    0.0000 N   0  0  0  0  0  0  0  0  0  0  0  0
    0.9011    0.5550    0.0000 C   0  0  0  0  0  0  0  0  0  0  0  0
    2.3655    0.8801    0.0000 N   0  0  0  0  0  0  0  0  0  0  0  0
    3.3792   -0.2254    0.0000 C   0  0  0  0  0  0  0  0  0  0  0  0
    2.9287   -1.6562    0.0000 O   0  0  0  0  0  0  0  0  0  0  0  0
    4.8436    0.0997    0.0000 C   0  0  0  0  0  0  0  0  0  0  0  0
   -3.4919   -0.4205    0.0000 C   0  0  0  0  0  0  0  0  0  0  0  0
   -4.5056    0.6850    0.0000 O   0  0  0  0  0  0  0  0  0  0  0  0
   -3.9424   -1.8513    0.0000 O   0  0  0  0  0  0  0  0  0  0  0  0
  1  2  1  0
  2  3  1  0
  3  4  2  0
  4  5  1  0
  5  6  1  0
  6  7  1  0
  6  8  1  0
  8  9  1  0
  9 10  1  0
 10 11  2  0
 10 12  1  0
  4 13  1  0
 13 14  1  0
 13 15  2  0
  8  2  1  0
M  END
>  <IC50>  (135) 
6.3

>  <cmpdNO>  (135) 
139

$$$$

     RDKit          2D

 16 16  0  0  0  0  0  0  0  0999 V2000
    1.4813   -1.7014    0.0000 O   0  0  0  0  0  0  0  0  0  0  0  0
    1.0974   -3.1514    0.0000 C   0  0  0  0  0  0  0  0  0  0  0  0
    0.4174   -0.6439    0.0000 C   0  0  0  0  0  0  0  0  0  0  0  0
   -1.0303   -1.0365    0.0000 C   0  0  0  0  0  0  0  0  0  0  0  0
   -2.0941    0.0210    0.0000 C   0  0  0  0  0  0  0  0  0  0  0  0
   -1.7102    1.4710    0.0000 C   0  0  0  0  0  0  0  0  0  0  0  0
   -0.2625    1.8636    0.0000 C   0  0  0  0  0  0  0  0  0  0  0  0
    0.1213    3.3137    0.0000 N   0  0  0  0  0  0  0  0  0  0  0  0
    0.8013    0.8062    0.0000 C   0  0  0  0  0  0  0  0  0  0  0  0
    2.2490    1.1987    0.0000 N   0  0  0  0  0  0  0  0  0  0  0  0
    3.3129    0.1413    0.0000 C   0  0  0  0  0  0  0  0  0  0  0  0
    2.9290   -1.3088    0.0000 O   0  0  0  0  0  0  0  0  0  0  0  0
    4.7606    0.5339    0.0000 C   0  0  0  0  0  0  0  0  0  0  0  0
   -3.5418   -0.3716    0.0000 C   0  0  0  0  0  0  0  0  0  0  0  0
   -4.6057    0.6859    0.0000 O   0  0  0  0  0  0  0  0  0  0  0  0
   -3.9257   -1.8216    0.0000 O   0  0  0  0  0  0  0  0  0  0  0  0
  1  2  1  0
  1  3  1  0
  3  4  1  0
  4  5  2  0
  5  6  1  0
  6  7  1  0
  7  8  1  0
  7  9  1  0
  9 10  1  0
 10 11  1  0
 11 12  2  0
 11 13  1  0
  5 14  1  0
 14 15  1  0
 14 16  2  0
  9  3  1  0
M  END
>  <IC50>  (136) 
3.7

>  <cmpdNO>  (136) 
140

$$$$

     RDKit          2D

 17 17  0  0  0  0  0  0  0  0999 V2000
    1.5486   -1.2447    0.0000 O   0  0  0  0  0  0  0  0  0  0  0  0
    1.3765   -2.7348    0.0000 C   0  0  0  0  0  0  0  0  0  0  0  0
    2.5809   -3.6288    0.0000 C   0  0  0  0  0  0  0  0  0  0  0  0
    0.3441   -0.3506    0.0000 C   0  0  0  0  0  0  0  0  0  0  0  0
   -1.0324   -0.9467    0.0000 C   0  0  0  0  0  0  0  0  0  0  0  0
   -2.2368   -0.0526    0.0000 C   0  0  0  0  0  0  0  0  0  0  0  0
   -2.0647    1.4375    0.0000 C   0  0  0  0  0  0  0  0  0  0  0  0
   -0.6882    2.0335    0.0000 C   0  0  0  0  0  0  0  0  0  0  0  0
   -0.5162    3.5236    0.0000 N   0  0  0  0  0  0  0  0  0  0  0  0
    0.5162    1.1395    0.0000 C   0  0  0  0  0  0  0  0  0  0  0  0
    1.8927    1.7355    0.0000 N   0  0  0  0  0  0  0  0  0  0  0  0
    3.0971    0.8415    0.0000 C   0  0  0  0  0  0  0  0  0  0  0  0
    2.9251   -0.6486    0.0000 O   0  0  0  0  0  0  0  0  0  0  0  0
    4.4736    1.4375    0.0000 C   0  0  0  0  0  0  0  0  0  0  0  0
   -3.6133   -0.6486    0.0000 C   0  0  0  0  0  0  0  0  0  0  0  0
   -4.8177    0.2454    0.0000 O   0  0  0  0  0  0  0  0  0  0  0  0
   -3.7854   -2.1387    0.0000 O   0  0  0  0  0  0  0  0  0  0  0  0
  1  2  1  0
  2  3  1  0
  1  4  1  0
  4  5  1  0
  5  6  2  0
  6  7  1  0
  7  8  1  0
  8  9  1  0
  8 10  1  0
 10 11  1  0
 11 12  1  0
 12 13  2  0
 12 14  1  0
  6 15  1  0
 15 16  1  0
 15 17  2  0
 10  4  1  0
M  END
>  <IC50>  (137) 
1.99

>  <cmpdNO>  (137) 
141

$$$$

     RDKit          2D

 18 18  0  0  0  0  0  0  0  0999 V2000
    1.6128   -0.5678    0.0000 O   0  0  0  0  0  0  0  0  0  0  0  0
    1.8265   -2.0525    0.0000 C   0  0  0  0  0  0  0  0  0  0  0  0
    3.2191   -2.6098    0.0000 C   0  0  0  0  0  0  0  0  0  0  0  0
    3.4327   -4.0945    0.0000 C   0  0  0  0  0  0  0  0  0  0  0  0
    0.2202   -0.0104    0.0000 C   0  0  0  0  0  0  0  0  0  0  0  0
   -0.9588   -0.9378    0.0000 C   0  0  0  0  0  0  0  0  0  0  0  0
   -2.3514   -0.3804    0.0000 C   0  0  0  0  0  0  0  0  0  0  0  0
   -2.5650    1.1043    0.0000 C   0  0  0  0  0  0  0  0  0  0  0  0
   -1.3860    2.0317    0.0000 C   0  0  0  0  0  0  0  0  0  0  0  0
   -1.5996    3.5164    0.0000 N   0  0  0  0  0  0  0  0  0  0  0  0
    0.0066    1.4743    0.0000 C   0  0  0  0  0  0  0  0  0  0  0  0
    1.1856    2.4017    0.0000 N   0  0  0  0  0  0  0  0  0  0  0  0
    2.5782    1.8443    0.0000 C   0  0  0  0  0  0  0  0  0  0  0  0
    2.7918    0.3596    0.0000 O   0  0  0  0  0  0  0  0  0  0  0  0
    3.7572    2.7717    0.0000 C   0  0  0  0  0  0  0  0  0  0  0  0
   -3.5303   -1.3078    0.0000 C   0  0  0  0  0  0  0  0  0  0  0  0
   -4.9230   -0.7504    0.0000 O   0  0  0  0  0  0  0  0  0  0  0  0
   -3.3167   -2.7925    0.0000 O   0  0  0  0  0  0  0  0  0  0  0  0
  1  2  1  0
  2  3  1  0
  3  4  2  0
  1  5  1  0
  5  6  1  0
  6  7  2  0
  7  8  1  0
  8  9  1  0
  9 10  1  0
  9 11  1  0
 11 12  1  0
 12 13  1  0
 13 14  2  0
 13 15  1  0
  7 16  1  0
 16 17  1  0
 16 18  2  0
 11  5  1  0
M  END
>  <IC50>  (138) 
2.18

>  <cmpdNO>  (138) 
142

$$$$

     RDKit          2D

 24 24  0  0  0  0  0  0  0  0999 V2000
   -3.7540   -3.6926    0.0000 O   0  0  0  0  0  0  0  0  0  0  0  0
   -2.2883   -3.3741    0.0000 C   0  0  0  0  0  0  0  0  0  0  0  0
   -1.2795   -4.4842    0.0000 O   0  0  0  0  0  0  0  0  0  0  0  0
   -1.8312   -1.9454    0.0000 C   0  0  0  0  0  0  0  0  0  0  0  0
   -0.4067   -1.4754    0.0000 C   0  0  0  0  0  0  0  0  0  0  0  0
   -0.4135    0.0246    0.0000 C   0  0  0  0  0  0  0  0  0  0  0  0
    0.7960    0.9118    0.0000 C   0  0  0  0  0  0  0  0  0  0  0  0
    0.6324    2.4028    0.0000 N   0  0  0  0  0  0  0  0  0  0  0  0
    1.8419    3.2900    0.0000 C   0  0  0  0  0  0  0  0  0  0  0  0
    3.2150    2.6861    0.0000 O   0  0  0  0  0  0  0  0  0  0  0  0
    1.6784    4.7810    0.0000 C   0  0  0  0  0  0  0  0  0  0  0  0
    2.1690    0.3079    0.0000 C   0  0  0  0  0  0  0  0  0  0  0  0
    3.3786    1.1950    0.0000 O   0  0  0  0  0  0  0  0  0  0  0  0
    2.3326   -1.1832    0.0000 N   0  0  0  0  0  0  0  0  0  0  0  0
    3.7057   -1.7871    0.0000 C   0  0  0  0  0  0  0  0  0  0  0  0
    3.8692   -3.2781    0.0000 C   0  0  0  0  0  0  0  0  0  0  0  0
    4.9152   -0.8999    0.0000 C   0  0  0  0  0  0  0  0  0  0  0  0
    1.1231   -2.0704    0.0000 C   0  0  0  0  0  0  0  0  0  0  0  0
   -1.8422    0.4816    0.0000 C   0  0  0  0  0  0  0  0  0  0  0  0
   -2.3122    1.9061    0.0000 N   0  0  0  0  0  0  0  0  0  0  0  0
   -3.7808    2.2113    0.0000 C   0  0  0  0  0  0  0  0  0  0  0  0
   -4.2508    3.6358    0.0000 N   0  0  0  0  0  0  0  0  0  0  0  0
   -4.7794    1.0921    0.0000 N   0  0  0  0  0  0  0  0  0  0  0  0
   -2.7184   -0.7359    0.0000 C   0  0  0  0  0  0  0  0  0  0  0  0
  1  2  1  0
  2  3  2  0
  2  4  1  0
  4  5  1  0
  5  6  1  0
  6  7  1  0
  7  8  1  0
  8  9  1  0
  9 10  2  0
  9 11  1  0
  7 12  1  0
 12 13  2  0
 12 14  1  0
 14 15  1  0
 15 16  1  0
 15 17  1  0
 14 18  1  0
  6 19  1  0
 19 20  1  0
 20 21  1  0
 21 22  1  0
 21 23  2  0
 19 24  1  0
 24  4  1  0
M  END
>  <IC50>  (139) 
3.235

>  <cmpdNO>  (139) 
143

$$$$

     RDKit          2D

 25 25  0  0  0  0  0  0  0  0999 V2000
   -1.4517   -5.0038    0.0000 O   0  0  0  0  0  0  0  0  0  0  0  0
   -0.4087   -3.9258    0.0000 C   0  0  0  0  0  0  0  0  0  0  0  0
    1.0464   -4.2900    0.0000 O   0  0  0  0  0  0  0  0  0  0  0  0
   -0.8209   -2.4835    0.0000 C   0  0  0  0  0  0  0  0  0  0  0  0
    0.1037   -1.3024    0.0000 C   0  0  0  0  0  0  0  0  0  0  0  0
   -0.7339   -0.0580    0.0000 C   0  0  0  0  0  0  0  0  0  0  0  0
   -0.2196    1.3510    0.0000 C   0  0  0  0  0  0  0  0  0  0  0  0
   -1.1827    2.5010    0.0000 N   0  0  0  0  0  0  0  0  0  0  0  0
   -0.6684    3.9101    0.0000 C   0  0  0  0  0  0  0  0  0  0  0  0
    0.8091    4.1692    0.0000 O   0  0  0  0  0  0  0  0  0  0  0  0
   -1.6315    5.0600    0.0000 C   0  0  0  0  0  0  0  0  0  0  0  0
    1.2579    1.6102    0.0000 C   0  0  0  0  0  0  0  0  0  0  0  0
    1.7722    3.0192    0.0000 O   0  0  0  0  0  0  0  0  0  0  0  0
    2.2210    0.4602    0.0000 N   0  0  0  0  0  0  0  0  0  0  0  0
    3.6984    0.7193    0.0000 C   0  0  0  0  0  0  0  0  0  0  0  0
    4.6616   -0.4306    0.0000 C   0  0  0  0  0  0  0  0  0  0  0  0
    6.1390   -0.1715    0.0000 C   0  0  0  0  0  0  0  0  0  0  0  0
    7.1021   -1.3215    0.0000 C   0  0  0  0  0  0  0  0  0  0  0  0
    1.7067   -0.9489    0.0000 C   0  0  0  0  0  0  0  0  0  0  0  0
   -2.1762   -0.4701    0.0000 C   0  0  0  0  0  0  0  0  0  0  0  0
   -3.3574    0.4544    0.0000 N   0  0  0  0  0  0  0  0  0  0  0  0
   -4.7486   -0.1062    0.0000 C   0  0  0  0  0  0  0  0  0  0  0  0
   -5.9298    0.8184    0.0000 N   0  0  0  0  0  0  0  0  0  0  0  0
   -4.9588   -1.5914    0.0000 N   0  0  0  0  0  0  0  0  0  0  0  0
   -2.2299   -1.9692    0.0000 C   0  0  0  0  0  0  0  0  0  0  0  0
  1  2  1  0
  2  3  2  0
  2  4  1  0
  4  5  1  0
  5  6  1  0
  6  7  1  0
  7  8  1  0
  8  9  1  0
  9 10  2  0
  9 11  1  0
  7 12  1  0
 12 13  2  0
 12 14  1  0
 14 15  1  0
 15 16  1  0
 16 17  1  0
 17 18  1  0
 14 19  1  0
  6 20  1  0
 20 21  1  0
 21 22  1  0
 22 23  1  0
 22 24  2  0
 20 25  1  0
 25  4  1  0
M  END
>  <IC50>  (140) 
2.4

>  <cmpdNO>  (140) 
144

$$$$

     RDKit          2D

 27 27  0  0  0  0  0  0  0  0999 V2000
   -1.5504   -5.0933    0.0000 O   0  0  0  0  0  0  0  0  0  0  0  0
   -0.6376   -3.9031    0.0000 C   0  0  0  0  0  0  0  0  0  0  0  0
    0.8496   -4.0984    0.0000 O   0  0  0  0  0  0  0  0  0  0  0  0
   -1.2120   -2.5174    0.0000 C   0  0  0  0  0  0  0  0  0  0  0  0
   -0.4286   -1.2382    0.0000 C   0  0  0  0  0  0  0  0  0  0  0  0
   -1.4031   -0.0979    0.0000 C   0  0  0  0  0  0  0  0  0  0  0  0
   -1.0534    1.3608    0.0000 C   0  0  0  0  0  0  0  0  0  0  0  0
   -2.1417    2.3930    0.0000 N   0  0  0  0  0  0  0  0  0  0  0  0
   -1.7919    3.8516    0.0000 C   0  0  0  0  0  0  0  0  0  0  0  0
   -0.3538    4.2781    0.0000 O   0  0  0  0  0  0  0  0  0  0  0  0
   -2.8803    4.8839    0.0000 C   0  0  0  0  0  0  0  0  0  0  0  0
    0.3848    1.7872    0.0000 C   0  0  0  0  0  0  0  0  0  0  0  0
    0.7345    3.2458    0.0000 O   0  0  0  0  0  0  0  0  0  0  0  0
    1.4731    0.7550    0.0000 N   0  0  0  0  0  0  0  0  0  0  0  0
    2.9112    1.1814    0.0000 C   0  0  0  0  0  0  0  0  0  0  0  0
    3.9996    0.1492    0.0000 C   0  0  0  0  0  0  0  0  0  0  0  0
    5.4377    0.5756    0.0000 C   0  0  0  0  0  0  0  0  0  0  0  0
    6.5260   -0.4567    0.0000 C   0  0  0  0  0  0  0  0  0  0  0  0
    7.9641   -0.0302    0.0000 C   0  0  0  0  0  0  0  0  0  0  0  0
    9.0525   -1.0625    0.0000 C   0  0  0  0  0  0  0  0  0  0  0  0
    1.1233   -0.7037    0.0000 C   0  0  0  0  0  0  0  0  0  0  0  0
   -2.7888   -0.6723    0.0000 C   0  0  0  0  0  0  0  0  0  0  0  0
   -4.0680    0.1111    0.0000 N   0  0  0  0  0  0  0  0  0  0  0  0
   -5.3860   -0.6050    0.0000 C   0  0  0  0  0  0  0  0  0  0  0  0
   -6.6652    0.1784    0.0000 N   0  0  0  0  0  0  0  0  0  0  0  0
   -5.4248   -2.1045    0.0000 N   0  0  0  0  0  0  0  0  0  0  0  0
   -2.6707   -2.1676    0.0000 C   0  0  0  0  0  0  0  0  0  0  0  0
  1  2  1  0
  2  3  2  0
  2  4  1  0
  4  5  1  0
  5  6  1  0
  6  7  1  0
  7  8  1  0
  8  9  1  0
  9 10  2  0
  9 11  1  0
  7 12  1  0
 12 13  2  0
 12 14  1  0
 14 15  1  0
 15 16  1  0
 16 17  1  0
 17 18  1  0
 18 19  1  0
 19 20  1  0
 14 21  1  0
  6 22  1  0
 22 23  1  0
 23 24  1  0
 24 25  1  0
 24 26  2  0
 22 27  1  0
 27  4  1  0
M  END
>  <IC50>  (141) 
64.57

>  <cmpdNO>  (141) 
145

$$$$

     RDKit          2D

 29 30  0  0  0  0  0  0  0  0999 V2000
   -6.1609   -2.6188    0.0000 O   0  0  0  0  0  0  0  0  0  0  0  0
   -5.6747   -1.1998    0.0000 C   0  0  0  0  0  0  0  0  0  0  0  0
   -6.6604   -0.0692    0.0000 O   0  0  0  0  0  0  0  0  0  0  0  0
   -4.2027   -0.9114    0.0000 C   0  0  0  0  0  0  0  0  0  0  0  0
   -3.5708    0.4490    0.0000 C   0  0  0  0  0  0  0  0  0  0  0  0
   -2.0817    0.2684    0.0000 C   0  0  0  0  0  0  0  0  0  0  0  0
   -1.0603    1.3670    0.0000 C   0  0  0  0  0  0  0  0  0  0  0  0
   -1.5010    2.8008    0.0000 N   0  0  0  0  0  0  0  0  0  0  0  0
   -2.9631    3.1360    0.0000 C   0  0  0  0  0  0  0  0  0  0  0  0
   -3.9844    2.0375    0.0000 O   0  0  0  0  0  0  0  0  0  0  0  0
   -3.4038    4.5698    0.0000 C   0  0  0  0  0  0  0  0  0  0  0  0
    0.4017    1.0318    0.0000 C   0  0  0  0  0  0  0  0  0  0  0  0
    0.8424   -0.4020    0.0000 O   0  0  0  0  0  0  0  0  0  0  0  0
    1.4231    2.1303    0.0000 N   0  0  0  0  0  0  0  0  0  0  0  0
    2.8852    1.7951    0.0000 C   0  0  0  0  0  0  0  0  0  0  0  0
    3.3259    0.3613    0.0000 C   0  0  0  0  0  0  0  0  0  0  0  0
    4.7879    0.0260    0.0000 C   0  0  0  0  0  0  0  0  0  0  0  0
    5.2286   -1.4078    0.0000 C   0  0  0  0  0  0  0  0  0  0  0  0
    6.6907   -1.7430    0.0000 C   0  0  0  0  0  0  0  0  0  0  0  0
    7.7120   -0.6444    0.0000 C   0  0  0  0  0  0  0  0  0  0  0  0
    7.2713    0.7894    0.0000 C   0  0  0  0  0  0  0  0  0  0  0  0
    5.8093    1.1246    0.0000 C   0  0  0  0  0  0  0  0  0  0  0  0
    0.9824    3.5641    0.0000 C   0  0  0  0  0  0  0  0  0  0  0  0
   -1.7933   -1.2036    0.0000 C   0  0  0  0  0  0  0  0  0  0  0  0
   -0.4328   -1.8355    0.0000 N   0  0  0  0  0  0  0  0  0  0  0  0
   -0.2999   -3.3296    0.0000 C   0  0  0  0  0  0  0  0  0  0  0  0
    1.0605   -3.9615    0.0000 N   0  0  0  0  0  0  0  0  0  0  0  0
   -1.5273   -4.1918    0.0000 N   0  0  0  0  0  0  0  0  0  0  0  0
   -3.1041   -1.9328    0.0000 C   0  0  0  0  0  0  0  0  0  0  0  0
  1  2  1  0
  2  3  2  0
  2  4  1  0
  4  5  1  0
  5  6  1  0
  6  7  1  0
  7  8  1  0
  8  9  1  0
  9 10  2  0
  9 11  1  0
  7 12  1  0
 12 13  2  0
 12 14  1  0
 14 15  1  0
 15 16  1  0
 16 17  1  0
 17 18  2  0
 18 19  1  0
 19 20  2  0
 20 21  1  0
 21 22  2  0
 14 23  1  0
  6 24  1  0
 24 25  1  0
 25 26  1  0
 26 27  1  0
 26 28  2  0
 24 29  1  0
 29  4  1  0
 22 17  1  0
M  END
>  <IC50>  (142) 
7.94

>  <cmpdNO>  (142) 
146

$$$$

     RDKit          2D

 21 23  0  0  0  0  0  0  0  0999 V2000
   -0.6769    0.6112    0.0000 O   0  0  0  0  0  0  0  0  0  0  0  0
    0.6177   -0.1465    0.0000 C   0  0  0  0  0  0  0  0  0  0  0  0
    1.9212    0.5958    0.0000 C   0  0  0  0  0  0  0  0  0  0  0  0
    1.9300    2.0958    0.0000 N   0  0  0  0  0  0  0  0  0  0  0  0
    3.2335    2.8381    0.0000 C   0  0  0  0  0  0  0  0  0  0  0  0
    4.5281    2.0804    0.0000 C   0  0  0  0  0  0  0  0  0  0  0  0
    4.5192    0.5805    0.0000 C   0  0  0  0  0  0  0  0  0  0  0  0
    3.2158   -0.1619    0.0000 C   0  0  0  0  0  0  0  0  0  0  0  0
    3.2069   -1.6618    0.0000 C   0  0  0  0  0  0  0  0  0  0  0  0
    4.5015   -2.4195    0.0000 C   0  0  0  0  0  0  0  0  0  0  0  0
    5.8049   -1.6772    0.0000 C   0  0  0  0  0  0  0  0  0  0  0  0
    5.8138   -0.1772    0.0000 C   0  0  0  0  0  0  0  0  0  0  0  0
   -1.9803   -0.1312    0.0000 C   0  0  0  0  0  0  0  0  0  0  0  0
   -3.2749    0.6265    0.0000 C   0  0  0  0  0  0  0  0  0  0  0  0
   -4.5783   -0.1158    0.0000 C   0  0  0  0  0  0  0  0  0  0  0  0
   -5.8729    0.6418    0.0000 N   0  0  0  0  0  0  0  0  0  0  0  0
   -7.1764   -0.1005    0.0000 O   0  0  0  0  0  0  0  0  0  0  0  0
   -5.8641    2.1418    0.0000 O   0  0  0  0  0  0  0  0  0  0  0  0
   -4.5872   -1.6158    0.0000 C   0  0  0  0  0  0  0  0  0  0  0  0
   -3.2926   -2.3734    0.0000 C   0  0  0  0  0  0  0  0  0  0  0  0
   -1.9892   -1.6311    0.0000 C   0  0  0  0  0  0  0  0  0  0  0  0
  1  2  1  0
  2  3  1  0
  3  4  2  0
  4  5  1  0
  5  6  1  0
  6  7  1  0
  7  8  2  0
  8  9  1  0
  9 10  2  0
 10 11  1  0
 11 12  2  0
  1 13  1  0
 13 14  2  0
 14 15  1  0
 15 16  1  0
 16 17  2  0
 16 18  1  0
 15 19  2  0
 19 20  1  0
 20 21  2  0
  8  3  1  0
 21 13  1  0
 12  7  1  0
M  CHG  2  16   1  18  -1
M  END
>  <IC50>  (143) 
1258.9

>  <cmpdNO>  (143) 
147

$$$$

     RDKit          2D

 19 21  0  0  0  0  0  0  0  0999 V2000
   -6.5039    1.1334    0.0000 Br  0  0  0  0  0  0  0  0  0  0  0  0
   -5.2561    0.3010    0.0000 C   0  0  0  0  0  0  0  0  0  0  0  0
   -3.9112    0.9654    0.0000 C   0  0  0  0  0  0  0  0  0  0  0  0
   -2.6634    0.1330    0.0000 C   0  0  0  0  0  0  0  0  0  0  0  0
   -1.3186    0.7975    0.0000 O   0  0  0  0  0  0  0  0  0  0  0  0
   -0.0708   -0.0350    0.0000 C   0  0  0  0  0  0  0  0  0  0  0  0
    1.2740    0.6295    0.0000 C   0  0  0  0  0  0  0  0  0  0  0  0
    1.3710    2.1263    0.0000 N   0  0  0  0  0  0  0  0  0  0  0  0
    2.7158    2.7908    0.0000 C   0  0  0  0  0  0  0  0  0  0  0  0
    3.9637    1.9583    0.0000 C   0  0  0  0  0  0  0  0  0  0  0  0
    3.8667    0.4615    0.0000 C   0  0  0  0  0  0  0  0  0  0  0  0
    2.5219   -0.2030    0.0000 C   0  0  0  0  0  0  0  0  0  0  0  0
    2.4249   -1.6998    0.0000 C   0  0  0  0  0  0  0  0  0  0  0  0
    3.6727   -2.5322    0.0000 C   0  0  0  0  0  0  0  0  0  0  0  0
    5.0175   -1.8678    0.0000 C   0  0  0  0  0  0  0  0  0  0  0  0
    5.1145   -0.3709    0.0000 C   0  0  0  0  0  0  0  0  0  0  0  0
   -2.7604   -1.3638    0.0000 C   0  0  0  0  0  0  0  0  0  0  0  0
   -4.1052   -2.0283    0.0000 C   0  0  0  0  0  0  0  0  0  0  0  0
   -5.3530   -1.1959    0.0000 C   0  0  0  0  0  0  0  0  0  0  0  0
  1  2  1  0
  2  3  2  0
  3  4  1  0
  4  5  1  0
  5  6  1  0
  6  7  1  0
  7  8  2  0
  8  9  1  0
  9 10  1  0
 10 11  1  0
 11 12  2  0
 12 13  1  0
 13 14  2  0
 14 15  1  0
 15 16  2  0
  4 17  2  0
 17 18  1  0
 18 19  2  0
 19  2  1  0
 12  7  1  0
 16 11  1  0
M  END
>  <IC50>  (144) 
1698.2

>  <cmpdNO>  (144) 
148

$$$$

     RDKit          2D

 20 22  0  0  0  0  0  0  0  0999 V2000
   -0.9659    0.6501    0.0000 O   0  0  0  0  0  0  0  0  0  0  0  0
    0.3233   -0.1167    0.0000 C   0  0  0  0  0  0  0  0  0  0  0  0
    1.6320    0.6163    0.0000 C   0  0  0  0  0  0  0  0  0  0  0  0
    1.6515    2.1162    0.0000 N   0  0  0  0  0  0  0  0  0  0  0  0
    2.9602    2.8492    0.0000 C   0  0  0  0  0  0  0  0  0  0  0  0
    4.2493    2.0823    0.0000 C   0  0  0  0  0  0  0  0  0  0  0  0
    4.2298    0.5825    0.0000 C   0  0  0  0  0  0  0  0  0  0  0  0
    2.9211   -0.1505    0.0000 C   0  0  0  0  0  0  0  0  0  0  0  0
    2.9016   -1.6504    0.0000 C   0  0  0  0  0  0  0  0  0  0  0  0
    4.1908   -2.4173    0.0000 C   0  0  0  0  0  0  0  0  0  0  0  0
    5.4994   -1.6843    0.0000 C   0  0  0  0  0  0  0  0  0  0  0  0
    5.5190   -0.1844    0.0000 C   0  0  0  0  0  0  0  0  0  0  0  0
   -2.2746   -0.0829    0.0000 C   0  0  0  0  0  0  0  0  0  0  0  0
   -3.5638    0.6840    0.0000 C   0  0  0  0  0  0  0  0  0  0  0  0
   -4.8724   -0.0491    0.0000 C   0  0  0  0  0  0  0  0  0  0  0  0
   -4.8920   -1.5489    0.0000 C   0  0  0  0  0  0  0  0  0  0  0  0
   -3.6028   -2.3158    0.0000 C   0  0  0  0  0  0  0  0  0  0  0  0
   -2.2941   -1.5828    0.0000 C   0  0  0  0  0  0  0  0  0  0  0  0
   -6.1616    0.7178    0.0000 C   0  0  0  0  0  0  0  0  0  0  0  0
   -7.4508    1.4846    0.0000 N   0  0  0  0  0  0  0  0  0  0  0  0
  1  2  1  0
  2  3  1  0
  3  4  2  0
  4  5  1  0
  5  6  1  0
  6  7  1  0
  7  8  2  0
  8  9  1  0
  9 10  2  0
 10 11  1  0
 11 12  2  0
  1 13  1  0
 13 14  2  0
 14 15  1  0
 15 16  2  0
 16 17  1  0
 17 18  2  0
 15 19  1  0
 19 20  3  0
  8  3  1  0
 18 13  1  0
 12  7  1  0
M  END
>  <IC50>  (145) 
1445.4

>  <cmpdNO>  (145) 
149

$$$$

     RDKit          2D

 19 21  0  0  0  0  0  0  0  0999 V2000
   -6.5039    1.1334    0.0000 Cl  0  0  0  0  0  0  0  0  0  0  0  0
   -5.2561    0.3010    0.0000 C   0  0  0  0  0  0  0  0  0  0  0  0
   -3.9112    0.9654    0.0000 C   0  0  0  0  0  0  0  0  0  0  0  0
   -2.6634    0.1330    0.0000 C   0  0  0  0  0  0  0  0  0  0  0  0
   -1.3186    0.7975    0.0000 O   0  0  0  0  0  0  0  0  0  0  0  0
   -0.0708   -0.0350    0.0000 C   0  0  0  0  0  0  0  0  0  0  0  0
    1.2740    0.6295    0.0000 C   0  0  0  0  0  0  0  0  0  0  0  0
    1.3710    2.1263    0.0000 N   0  0  0  0  0  0  0  0  0  0  0  0
    2.7158    2.7908    0.0000 C   0  0  0  0  0  0  0  0  0  0  0  0
    3.9637    1.9583    0.0000 C   0  0  0  0  0  0  0  0  0  0  0  0
    3.8667    0.4615    0.0000 C   0  0  0  0  0  0  0  0  0  0  0  0
    2.5219   -0.2030    0.0000 C   0  0  0  0  0  0  0  0  0  0  0  0
    2.4249   -1.6998    0.0000 C   0  0  0  0  0  0  0  0  0  0  0  0
    3.6727   -2.5322    0.0000 C   0  0  0  0  0  0  0  0  0  0  0  0
    5.0175   -1.8678    0.0000 C   0  0  0  0  0  0  0  0  0  0  0  0
    5.1145   -0.3709    0.0000 C   0  0  0  0  0  0  0  0  0  0  0  0
   -2.7604   -1.3638    0.0000 C   0  0  0  0  0  0  0  0  0  0  0  0
   -4.1052   -2.0283    0.0000 C   0  0  0  0  0  0  0  0  0  0  0  0
   -5.3530   -1.1959    0.0000 C   0  0  0  0  0  0  0  0  0  0  0  0
  1  2  1  0
  2  3  2  0
  3  4  1  0
  4  5  1  0
  5  6  1  0
  6  7  1  0
  7  8  2  0
  8  9  1  0
  9 10  1  0
 10 11  1  0
 11 12  2  0
 12 13  1  0
 13 14  2  0
 14 15  1  0
 15 16  2  0
  4 17  2  0
 17 18  1  0
 18 19  2  0
 19  2  1  0
 12  7  1  0
 16 11  1  0
M  END
>  <IC50>  (146) 
1548.8

>  <cmpdNO>  (146) 
150

$$$$

     RDKit          2D

 19 21  0  0  0  0  0  0  0  0999 V2000
   -6.5039    1.1334    0.0000 F   0  0  0  0  0  0  0  0  0  0  0  0
   -5.2561    0.3010    0.0000 C   0  0  0  0  0  0  0  0  0  0  0  0
   -3.9112    0.9654    0.0000 C   0  0  0  0  0  0  0  0  0  0  0  0
   -2.6634    0.1330    0.0000 C   0  0  0  0  0  0  0  0  0  0  0  0
   -1.3186    0.7975    0.0000 O   0  0  0  0  0  0  0  0  0  0  0  0
   -0.0708   -0.0350    0.0000 C   0  0  0  0  0  0  0  0  0  0  0  0
    1.2740    0.6295    0.0000 C   0  0  0  0  0  0  0  0  0  0  0  0
    1.3710    2.1263    0.0000 N   0  0  0  0  0  0  0  0  0  0  0  0
    2.7158    2.7908    0.0000 C   0  0  0  0  0  0  0  0  0  0  0  0
    3.9637    1.9583    0.0000 C   0  0  0  0  0  0  0  0  0  0  0  0
    3.8667    0.4615    0.0000 C   0  0  0  0  0  0  0  0  0  0  0  0
    2.5219   -0.2030    0.0000 C   0  0  0  0  0  0  0  0  0  0  0  0
    2.4249   -1.6998    0.0000 C   0  0  0  0  0  0  0  0  0  0  0  0
    3.6727   -2.5322    0.0000 C   0  0  0  0  0  0  0  0  0  0  0  0
    5.0175   -1.8678    0.0000 C   0  0  0  0  0  0  0  0  0  0  0  0
    5.1145   -0.3709    0.0000 C   0  0  0  0  0  0  0  0  0  0  0  0
   -2.7604   -1.3638    0.0000 C   0  0  0  0  0  0  0  0  0  0  0  0
   -4.1052   -2.0283    0.0000 C   0  0  0  0  0  0  0  0  0  0  0  0
   -5.3530   -1.1959    0.0000 C   0  0  0  0  0  0  0  0  0  0  0  0
  1  2  1  0
  2  3  2  0
  3  4  1  0
  4  5  1  0
  5  6  1  0
  6  7  1  0
  7  8  2  0
  8  9  1  0
  9 10  1  0
 10 11  1  0
 11 12  2  0
 12 13  1  0
 13 14  2  0
 14 15  1  0
 15 16  2  0
  4 17  2  0
 17 18  1  0
 18 19  2  0
 19  2  1  0
 12  7  1  0
 16 11  1  0
M  END
>  <IC50>  (147) 
2344.2

>  <cmpdNO>  (147) 
151

$$$$

     RDKit          2D

 18 20  0  0  0  0  0  0  0  0999 V2000
   -1.6418    0.9311    0.0000 O   0  0  0  0  0  0  0  0  0  0  0  0
   -0.4305    0.0464    0.0000 C   0  0  0  0  0  0  0  0  0  0  0  0
    0.9413    0.6530    0.0000 C   0  0  0  0  0  0  0  0  0  0  0  0
    1.1019    2.1444    0.0000 N   0  0  0  0  0  0  0  0  0  0  0  0
    2.4738    2.7510    0.0000 C   0  0  0  0  0  0  0  0  0  0  0  0
    3.6851    1.8662    0.0000 C   0  0  0  0  0  0  0  0  0  0  0  0
    3.5245    0.3748    0.0000 C   0  0  0  0  0  0  0  0  0  0  0  0
    2.1526   -0.2318    0.0000 C   0  0  0  0  0  0  0  0  0  0  0  0
    1.9920   -1.7232    0.0000 C   0  0  0  0  0  0  0  0  0  0  0  0
    3.2033   -2.6079    0.0000 C   0  0  0  0  0  0  0  0  0  0  0  0
    4.5752   -2.0013    0.0000 C   0  0  0  0  0  0  0  0  0  0  0  0
    4.7358   -0.5099    0.0000 C   0  0  0  0  0  0  0  0  0  0  0  0
   -3.0137    0.3245    0.0000 C   0  0  0  0  0  0  0  0  0  0  0  0
   -4.2250    1.2092    0.0000 C   0  0  0  0  0  0  0  0  0  0  0  0
   -5.5968    0.6026    0.0000 C   0  0  0  0  0  0  0  0  0  0  0  0
   -5.7574   -0.8888    0.0000 C   0  0  0  0  0  0  0  0  0  0  0  0
   -4.5461   -1.7735    0.0000 C   0  0  0  0  0  0  0  0  0  0  0  0
   -3.1742   -1.1669    0.0000 C   0  0  0  0  0  0  0  0  0  0  0  0
  1  2  1  0
  2  3  1  0
  3  4  2  0
  4  5  1  0
  5  6  1  0
  6  7  1  0
  7  8  2  0
  8  9  1  0
  9 10  2  0
 10 11  1  0
 11 12  2  0
  1 13  1  0
 13 14  2  0
 14 15  1  0
 15 16  2  0
 16 17  1  0
 17 18  2  0
  8  3  1  0
 18 13  1  0
 12  7  1  0
M  END
>  <IC50>  (148) 
2630.2

>  <cmpdNO>  (148) 
152

$$$$

     RDKit          2D

 19 21  0  0  0  0  0  0  0  0999 V2000
   -1.3186    0.7975    0.0000 O   0  0  0  0  0  0  0  0  0  0  0  0
   -0.0708   -0.0350    0.0000 C   0  0  0  0  0  0  0  0  0  0  0  0
    1.2740    0.6295    0.0000 C   0  0  0  0  0  0  0  0  0  0  0  0
    1.3710    2.1263    0.0000 N   0  0  0  0  0  0  0  0  0  0  0  0
    2.7158    2.7908    0.0000 C   0  0  0  0  0  0  0  0  0  0  0  0
    3.9637    1.9583    0.0000 C   0  0  0  0  0  0  0  0  0  0  0  0
    3.8667    0.4615    0.0000 C   0  0  0  0  0  0  0  0  0  0  0  0
    2.5219   -0.2030    0.0000 C   0  0  0  0  0  0  0  0  0  0  0  0
    2.4249   -1.6998    0.0000 C   0  0  0  0  0  0  0  0  0  0  0  0
    3.6727   -2.5322    0.0000 C   0  0  0  0  0  0  0  0  0  0  0  0
    5.0175   -1.8678    0.0000 C   0  0  0  0  0  0  0  0  0  0  0  0
    5.1145   -0.3709    0.0000 C   0  0  0  0  0  0  0  0  0  0  0  0
   -2.6634    0.1330    0.0000 C   0  0  0  0  0  0  0  0  0  0  0  0
   -3.9112    0.9654    0.0000 C   0  0  0  0  0  0  0  0  0  0  0  0
   -5.2561    0.3010    0.0000 C   0  0  0  0  0  0  0  0  0  0  0  0
   -5.3530   -1.1959    0.0000 C   0  0  0  0  0  0  0  0  0  0  0  0
   -4.1052   -2.0283    0.0000 C   0  0  0  0  0  0  0  0  0  0  0  0
   -2.7604   -1.3638    0.0000 C   0  0  0  0  0  0  0  0  0  0  0  0
   -6.5039    1.1334    0.0000 C   0  0  0  0  0  0  0  0  0  0  0  0
  1  2  1  0
  2  3  1  0
  3  4  2  0
  4  5  1  0
  5  6  1  0
  6  7  1  0
  7  8  2  0
  8  9  1  0
  9 10  2  0
 10 11  1  0
 11 12  2  0
  1 13  1  0
 13 14  2  0
 14 15  1  0
 15 16  2  0
 16 17  1  0
 17 18  2  0
 15 19  1  0
  8  3  1  0
 18 13  1  0
 12  7  1  0
M  END
>  <IC50>  (149) 
2089.3

>  <cmpdNO>  (149) 
153

$$$$

     RDKit          2D

 20 22  0  0  0  0  0  0  0  0999 V2000
   -1.0374    0.6031    0.0000 O   0  0  0  0  0  0  0  0  0  0  0  0
    0.2594   -0.1508    0.0000 C   0  0  0  0  0  0  0  0  0  0  0  0
    1.5606    0.5953    0.0000 C   0  0  0  0  0  0  0  0  0  0  0  0
    1.5651    2.0953    0.0000 N   0  0  0  0  0  0  0  0  0  0  0  0
    2.8664    2.8414    0.0000 C   0  0  0  0  0  0  0  0  0  0  0  0
    4.1632    2.0875    0.0000 C   0  0  0  0  0  0  0  0  0  0  0  0
    4.1587    0.5875    0.0000 C   0  0  0  0  0  0  0  0  0  0  0  0
    2.8574   -0.1586    0.0000 C   0  0  0  0  0  0  0  0  0  0  0  0
    2.8529   -1.6586    0.0000 C   0  0  0  0  0  0  0  0  0  0  0  0
    4.1497   -2.4124    0.0000 C   0  0  0  0  0  0  0  0  0  0  0  0
    5.4510   -1.6663    0.0000 C   0  0  0  0  0  0  0  0  0  0  0  0
    5.4555   -0.1663    0.0000 C   0  0  0  0  0  0  0  0  0  0  0  0
   -2.3387   -0.1430    0.0000 C   0  0  0  0  0  0  0  0  0  0  0  0
   -3.6355    0.6109    0.0000 C   0  0  0  0  0  0  0  0  0  0  0  0
   -4.9368   -0.1352    0.0000 C   0  0  0  0  0  0  0  0  0  0  0  0
   -6.2336    0.6187    0.0000 O   0  0  0  0  0  0  0  0  0  0  0  0
   -6.2291    2.1187    0.0000 C   0  0  0  0  0  0  0  0  0  0  0  0
   -4.9413   -1.6352    0.0000 C   0  0  0  0  0  0  0  0  0  0  0  0
   -3.6445   -2.3891    0.0000 C   0  0  0  0  0  0  0  0  0  0  0  0
   -2.3432   -1.6430    0.0000 C   0  0  0  0  0  0  0  0  0  0  0  0
  1  2  1  0
  2  3  1  0
  3  4  2  0
  4  5  1  0
  5  6  1  0
  6  7  1  0
  7  8  2  0
  8  9  1  0
  9 10  2  0
 10 11  1  0
 11 12  2  0
  1 13  1  0
 13 14  2  0
 14 15  1  0
 15 16  1  0
 16 17  1  0
 15 18  2  0
 18 19  1  0
 19 20  2  0
  8  3  1  0
 20 13  1  0
 12  7  1  0
M  END
>  <IC50>  (150) 
2938.8

>  <cmpdNO>  (150) 
154

$$$$

     RDKit          2D

 19 21  0  0  0  0  0  0  0  0999 V2000
   -1.3186    0.7975    0.0000 O   0  0  0  0  0  0  0  0  0  0  0  0
   -0.0708   -0.0350    0.0000 C   0  0  0  0  0  0  0  0  0  0  0  0
    1.2740    0.6295    0.0000 C   0  0  0  0  0  0  0  0  0  0  0  0
    1.3710    2.1263    0.0000 N   0  0  0  0  0  0  0  0  0  0  0  0
    2.7158    2.7908    0.0000 C   0  0  0  0  0  0  0  0  0  0  0  0
    3.9637    1.9583    0.0000 C   0  0  0  0  0  0  0  0  0  0  0  0
    3.8667    0.4615    0.0000 C   0  0  0  0  0  0  0  0  0  0  0  0
    2.5219   -0.2030    0.0000 C   0  0  0  0  0  0  0  0  0  0  0  0
    2.4249   -1.6998    0.0000 C   0  0  0  0  0  0  0  0  0  0  0  0
    3.6727   -2.5322    0.0000 C   0  0  0  0  0  0  0  0  0  0  0  0
    5.0175   -1.8678    0.0000 C   0  0  0  0  0  0  0  0  0  0  0  0
    5.1145   -0.3709    0.0000 C   0  0  0  0  0  0  0  0  0  0  0  0
   -2.6634    0.1330    0.0000 C   0  0  0  0  0  0  0  0  0  0  0  0
   -3.9112    0.9654    0.0000 C   0  0  0  0  0  0  0  0  0  0  0  0
   -5.2561    0.3010    0.0000 C   0  0  0  0  0  0  0  0  0  0  0  0
   -6.5039    1.1334    0.0000 O   0  0  0  0  0  0  0  0  0  0  0  0
   -5.3530   -1.1959    0.0000 C   0  0  0  0  0  0  0  0  0  0  0  0
   -4.1052   -2.0283    0.0000 C   0  0  0  0  0  0  0  0  0  0  0  0
   -2.7604   -1.3638    0.0000 C   0  0  0  0  0  0  0  0  0  0  0  0
  1  2  1  0
  2  3  1  0
  3  4  2  0
  4  5  1  0
  5  6  1  0
  6  7  1  0
  7  8  2  0
  8  9  1  0
  9 10  2  0
 10 11  1  0
 11 12  2  0
  1 13  1  0
 13 14  2  0
 14 15  1  0
 15 16  1  0
 15 17  2  0
 17 18  1  0
 18 19  2  0
  8  3  1  0
 19 13  1  0
 12  7  1  0
M  END
>  <IC50>  (151) 
5754.4

>  <cmpdNO>  (151) 
155

$$$$

     RDKit          2D

 21 23  0  0  0  0  0  0  0  0999 V2000
   -0.7087    0.4199    0.0000 O   0  0  0  0  0  0  0  0  0  0  0  0
    0.6356   -0.2457    0.0000 C   0  0  0  0  0  0  0  0  0  0  0  0
    1.8841    0.5857    0.0000 C   0  0  0  0  0  0  0  0  0  0  0  0
    1.7884    2.0826    0.0000 N   0  0  0  0  0  0  0  0  0  0  0  0
    3.0369    2.9140    0.0000 C   0  0  0  0  0  0  0  0  0  0  0  0
    4.3812    2.2484    0.0000 C   0  0  0  0  0  0  0  0  0  0  0  0
    4.4769    0.7515    0.0000 C   0  0  0  0  0  0  0  0  0  0  0  0
    3.2283   -0.0799    0.0000 C   0  0  0  0  0  0  0  0  0  0  0  0
    3.3240   -1.5768    0.0000 C   0  0  0  0  0  0  0  0  0  0  0  0
    4.6683   -2.2424    0.0000 C   0  0  0  0  0  0  0  0  0  0  0  0
    5.9168   -1.4111    0.0000 C   0  0  0  0  0  0  0  0  0  0  0  0
    5.8211    0.0859    0.0000 C   0  0  0  0  0  0  0  0  0  0  0  0
   -1.9572   -0.4114    0.0000 C   0  0  0  0  0  0  0  0  0  0  0  0
   -3.3015    0.2542    0.0000 C   0  0  0  0  0  0  0  0  0  0  0  0
   -4.5500   -0.5772    0.0000 C   0  0  0  0  0  0  0  0  0  0  0  0
   -5.8943    0.0884    0.0000 O   0  0  0  0  0  0  0  0  0  0  0  0
   -5.9900    1.5853    0.0000 C   0  0  0  0  0  0  0  0  0  0  0  0
   -7.3342    2.2509    0.0000 C   0  0  0  0  0  0  0  0  0  0  0  0
   -4.4543   -2.0741    0.0000 C   0  0  0  0  0  0  0  0  0  0  0  0
   -3.1101   -2.7397    0.0000 C   0  0  0  0  0  0  0  0  0  0  0  0
   -1.8615   -1.9084    0.0000 C   0  0  0  0  0  0  0  0  0  0  0  0
  1  2  1  0
  2  3  1  0
  3  4  2  0
  4  5  1  0
  5  6  1  0
  6  7  1  0
  7  8  2  0
  8  9  1  0
  9 10  2  0
 10 11  1  0
 11 12  2  0
  1 13  1  0
 13 14  2  0
 14 15  1  0
 15 16  1  0
 16 17  1  0
 17 18  1  0
 15 19  2  0
 19 20  1  0
 20 21  2  0
  8  3  1  0
 21 13  1  0
 12  7  1  0
M  END
>  <IC50>  (152) 
2238.7

>  <cmpdNO>  (152) 
156

$$$$

     RDKit          2D

 22 24  0  0  0  0  0  0  0  0999 V2000
   -0.3888    0.2208    0.0000 O   0  0  0  0  0  0  0  0  0  0  0  0
    1.0020   -0.3412    0.0000 C   0  0  0  0  0  0  0  0  0  0  0  0
    2.1840    0.5823    0.0000 C   0  0  0  0  0  0  0  0  0  0  0  0
    1.9753    2.0677    0.0000 N   0  0  0  0  0  0  0  0  0  0  0  0
    3.1574    2.9911    0.0000 C   0  0  0  0  0  0  0  0  0  0  0  0
    4.5481    2.4292    0.0000 C   0  0  0  0  0  0  0  0  0  0  0  0
    4.7568    0.9438    0.0000 C   0  0  0  0  0  0  0  0  0  0  0  0
    3.5748    0.0203    0.0000 C   0  0  0  0  0  0  0  0  0  0  0  0
    3.7835   -1.4651    0.0000 C   0  0  0  0  0  0  0  0  0  0  0  0
    5.1742   -2.0271    0.0000 C   0  0  0  0  0  0  0  0  0  0  0  0
    6.3563   -1.1036    0.0000 C   0  0  0  0  0  0  0  0  0  0  0  0
    6.1476    0.3818    0.0000 C   0  0  0  0  0  0  0  0  0  0  0  0
   -1.5708   -0.7027    0.0000 C   0  0  0  0  0  0  0  0  0  0  0  0
   -2.9616   -0.1407    0.0000 C   0  0  0  0  0  0  0  0  0  0  0  0
   -4.1436   -1.0642    0.0000 C   0  0  0  0  0  0  0  0  0  0  0  0
   -5.5344   -0.5022    0.0000 O   0  0  0  0  0  0  0  0  0  0  0  0
   -5.7431    0.9832    0.0000 C   0  0  0  0  0  0  0  0  0  0  0  0
   -7.1339    1.5452    0.0000 C   0  0  0  0  0  0  0  0  0  0  0  0
   -7.3426    3.0306    0.0000 C   0  0  0  0  0  0  0  0  0  0  0  0
   -3.9349   -2.5496    0.0000 C   0  0  0  0  0  0  0  0  0  0  0  0
   -2.5442   -3.1115    0.0000 C   0  0  0  0  0  0  0  0  0  0  0  0
   -1.3621   -2.1881    0.0000 C   0  0  0  0  0  0  0  0  0  0  0  0
  1  2  1  0
  2  3  1  0
  3  4  2  0
  4  5  1  0
  5  6  1  0
  6  7  1  0
  7  8  2  0
  8  9  1  0
  9 10  2  0
 10 11  1  0
 11 12  2  0
  1 13  1  0
 13 14  2  0
 14 15  1  0
 15 16  1  0
 16 17  1  0
 17 18  1  0
 18 19  1  0
 15 20  2  0
 20 21  1  0
 21 22  2  0
  8  3  1  0
 22 13  1  0
 12  7  1  0
M  END
>  <IC50>  (153) 
1621.81

>  <cmpdNO>  (153) 
157

$$$$

     RDKit          2D

 23 25  0  0  0  0  0  0  0  0999 V2000
   -0.0137    0.0638    0.0000 O   0  0  0  0  0  0  0  0  0  0  0  0
    1.4140   -0.3964    0.0000 C   0  0  0  0  0  0  0  0  0  0  0  0
    2.5263    0.6099    0.0000 C   0  0  0  0  0  0  0  0  0  0  0  0
    2.2110    2.0763    0.0000 N   0  0  0  0  0  0  0  0  0  0  0  0
    3.3234    3.0826    0.0000 C   0  0  0  0  0  0  0  0  0  0  0  0
    4.7511    2.6224    0.0000 C   0  0  0  0  0  0  0  0  0  0  0  0
    5.0664    1.1560    0.0000 C   0  0  0  0  0  0  0  0  0  0  0  0
    3.9540    0.1497    0.0000 C   0  0  0  0  0  0  0  0  0  0  0  0
    4.2693   -1.3168    0.0000 C   0  0  0  0  0  0  0  0  0  0  0  0
    5.6969   -1.7770    0.0000 C   0  0  0  0  0  0  0  0  0  0  0  0
    6.8093   -0.7707    0.0000 C   0  0  0  0  0  0  0  0  0  0  0  0
    6.4940    0.6958    0.0000 C   0  0  0  0  0  0  0  0  0  0  0  0
   -1.1261   -0.9425    0.0000 C   0  0  0  0  0  0  0  0  0  0  0  0
   -2.5537   -0.4823    0.0000 C   0  0  0  0  0  0  0  0  0  0  0  0
   -3.6661   -1.4886    0.0000 C   0  0  0  0  0  0  0  0  0  0  0  0
   -5.0938   -1.0284    0.0000 O   0  0  0  0  0  0  0  0  0  0  0  0
   -5.4091    0.4381    0.0000 C   0  0  0  0  0  0  0  0  0  0  0  0
   -6.8367    0.8982    0.0000 C   0  0  0  0  0  0  0  0  0  0  0  0
   -7.1520    2.3647    0.0000 C   0  0  0  0  0  0  0  0  0  0  0  0
   -8.5797    2.8249    0.0000 C   0  0  0  0  0  0  0  0  0  0  0  0
   -3.3508   -2.9551    0.0000 C   0  0  0  0  0  0  0  0  0  0  0  0
   -1.9232   -3.4153    0.0000 C   0  0  0  0  0  0  0  0  0  0  0  0
   -0.8108   -2.4090    0.0000 C   0  0  0  0  0  0  0  0  0  0  0  0
  1  2  1  0
  2  3  1  0
  3  4  2  0
  4  5  1  0
  5  6  1  0
  6  7  1  0
  7  8  2  0
  8  9  1  0
  9 10  2  0
 10 11  1  0
 11 12  2  0
  1 13  1  0
 13 14  2  0
 14 15  1  0
 15 16  1  0
 16 17  1  0
 17 18  1  0
 18 19  1  0
 19 20  1  0
 15 21  2  0
 21 22  1  0
 22 23  2  0
  8  3  1  0
 23 13  1  0
 12  7  1  0
M  END
>  <IC50>  (154) 
1659.6

>  <cmpdNO>  (154) 
158

$$$$

     RDKit          2D

 23 25  0  0  0  0  0  0  0  0999 V2000
   -0.2549    0.2326    0.0000 O   0  0  0  0  0  0  0  0  0  0  0  0
    1.1230   -0.3600    0.0000 C   0  0  0  0  0  0  0  0  0  0  0  0
    2.3252    0.5371    0.0000 C   0  0  0  0  0  0  0  0  0  0  0  0
    2.1495    2.0267    0.0000 N   0  0  0  0  0  0  0  0  0  0  0  0
    3.3516    2.9238    0.0000 C   0  0  0  0  0  0  0  0  0  0  0  0
    4.7296    2.3312    0.0000 C   0  0  0  0  0  0  0  0  0  0  0  0
    4.9054    0.8415    0.0000 C   0  0  0  0  0  0  0  0  0  0  0  0
    3.7032   -0.0555    0.0000 C   0  0  0  0  0  0  0  0  0  0  0  0
    3.8790   -1.5452    0.0000 C   0  0  0  0  0  0  0  0  0  0  0  0
    5.2570   -2.1378    0.0000 C   0  0  0  0  0  0  0  0  0  0  0  0
    6.4592   -1.2407    0.0000 C   0  0  0  0  0  0  0  0  0  0  0  0
    6.2834    0.2489    0.0000 C   0  0  0  0  0  0  0  0  0  0  0  0
   -1.4571   -0.6645    0.0000 C   0  0  0  0  0  0  0  0  0  0  0  0
   -2.8351   -0.0719    0.0000 C   0  0  0  0  0  0  0  0  0  0  0  0
   -4.0373   -0.9689    0.0000 C   0  0  0  0  0  0  0  0  0  0  0  0
   -5.4153   -0.3763    0.0000 O   0  0  0  0  0  0  0  0  0  0  0  0
   -5.5911    1.1133    0.0000 C   0  0  0  0  0  0  0  0  0  0  0  0
   -7.0807    0.9375    0.0000 C   0  0  0  0  0  0  0  0  0  0  0  0
   -4.1014    1.2891    0.0000 C   0  0  0  0  0  0  0  0  0  0  0  0
   -5.7669    2.6030    0.0000 C   0  0  0  0  0  0  0  0  0  0  0  0
   -3.8615   -2.4586    0.0000 C   0  0  0  0  0  0  0  0  0  0  0  0
   -2.4835   -3.0512    0.0000 C   0  0  0  0  0  0  0  0  0  0  0  0
   -1.2813   -2.1541    0.0000 C   0  0  0  0  0  0  0  0  0  0  0  0
  1  2  1  0
  2  3  1  0
  3  4  2  0
  4  5  1  0
  5  6  1  0
  6  7  1  0
  7  8  2  0
  8  9  1  0
  9 10  2  0
 10 11  1  0
 11 12  2  0
  1 13  1  0
 13 14  2  0
 14 15  1  0
 15 16  1  0
 16 17  1  0
 17 18  1  0
 17 19  1  0
 17 20  1  0
 15 21  2  0
 21 22  1  0
 22 23  2  0
  8  3  1  0
 23 13  1  0
 12  7  1  0
M  END
>  <IC50>  (155) 
707.95

>  <cmpdNO>  (155) 
159

$$$$

     RDKit          2D

 19 21  0  0  0  0  0  0  0  0999 V2000
   -1.2210    1.0645    0.0000 O   0  0  0  0  0  0  0  0  0  0  0  0
   -0.0497    0.1274    0.0000 C   0  0  0  0  0  0  0  0  0  0  0  0
    1.3475    0.6731    0.0000 C   0  0  0  0  0  0  0  0  0  0  0  0
    1.5734    2.1560    0.0000 N   0  0  0  0  0  0  0  0  0  0  0  0
    2.9706    2.7017    0.0000 C   0  0  0  0  0  0  0  0  0  0  0  0
    4.1419    1.7646    0.0000 C   0  0  0  0  0  0  0  0  0  0  0  0
    3.9159    0.2817    0.0000 C   0  0  0  0  0  0  0  0  0  0  0  0
    2.5187   -0.2640    0.0000 C   0  0  0  0  0  0  0  0  0  0  0  0
    2.2927   -1.7469    0.0000 C   0  0  0  0  0  0  0  0  0  0  0  0
    3.4639   -2.6841    0.0000 C   0  0  0  0  0  0  0  0  0  0  0  0
    4.8611   -2.1383    0.0000 C   0  0  0  0  0  0  0  0  0  0  0  0
    5.0871   -0.6554    0.0000 C   0  0  0  0  0  0  0  0  0  0  0  0
   -2.6182    0.5188    0.0000 C   0  0  0  0  0  0  0  0  0  0  0  0
   -3.7894    1.4559    0.0000 C   0  0  0  0  0  0  0  0  0  0  0  0
   -5.1866    0.9102    0.0000 C   0  0  0  0  0  0  0  0  0  0  0  0
   -5.4126   -0.5727    0.0000 C   0  0  0  0  0  0  0  0  0  0  0  0
   -4.2414   -1.5098    0.0000 C   0  0  0  0  0  0  0  0  0  0  0  0
   -2.8442   -0.9641    0.0000 C   0  0  0  0  0  0  0  0  0  0  0  0
   -6.8098   -1.1184    0.0000 C   0  0  0  0  0  0  0  0  0  0  0  0
  1  2  1  0
  2  3  1  0
  3  4  2  0
  4  5  1  0
  5  6  1  0
  6  7  1  0
  7  8  2  0
  8  9  1  0
  9 10  2  0
 10 11  1  0
 11 12  2  0
  1 13  1  0
 13 14  2  0
 14 15  1  0
 15 16  2  0
 16 17  1  0
 17 18  2  0
 16 19  1  0
  8  3  1  0
 18 13  1  0
 12  7  1  0
M  END
>  <IC50>  (156) 
1659.5

>  <cmpdNO>  (156) 
160

$$$$

     RDKit          2D

 19 21  0  0  0  0  0  0  0  0999 V2000
   -6.8098   -1.1184    0.0000 F   0  0  0  0  0  0  0  0  0  0  0  0
   -5.4126   -0.5727    0.0000 C   0  0  0  0  0  0  0  0  0  0  0  0
   -5.1866    0.9102    0.0000 C   0  0  0  0  0  0  0  0  0  0  0  0
   -3.7894    1.4559    0.0000 C   0  0  0  0  0  0  0  0  0  0  0  0
   -2.6182    0.5188    0.0000 C   0  0  0  0  0  0  0  0  0  0  0  0
   -1.2210    1.0645    0.0000 O   0  0  0  0  0  0  0  0  0  0  0  0
   -0.0497    0.1274    0.0000 C   0  0  0  0  0  0  0  0  0  0  0  0
    1.3475    0.6731    0.0000 C   0  0  0  0  0  0  0  0  0  0  0  0
    1.5734    2.1560    0.0000 N   0  0  0  0  0  0  0  0  0  0  0  0
    2.9706    2.7017    0.0000 C   0  0  0  0  0  0  0  0  0  0  0  0
    4.1419    1.7646    0.0000 C   0  0  0  0  0  0  0  0  0  0  0  0
    3.9159    0.2817    0.0000 C   0  0  0  0  0  0  0  0  0  0  0  0
    2.5187   -0.2640    0.0000 C   0  0  0  0  0  0  0  0  0  0  0  0
    2.2927   -1.7469    0.0000 C   0  0  0  0  0  0  0  0  0  0  0  0
    3.4639   -2.6841    0.0000 C   0  0  0  0  0  0  0  0  0  0  0  0
    4.8611   -2.1383    0.0000 C   0  0  0  0  0  0  0  0  0  0  0  0
    5.0871   -0.6554    0.0000 C   0  0  0  0  0  0  0  0  0  0  0  0
   -2.8442   -0.9641    0.0000 C   0  0  0  0  0  0  0  0  0  0  0  0
   -4.2414   -1.5098    0.0000 C   0  0  0  0  0  0  0  0  0  0  0  0
  1  2  1  0
  2  3  2  0
  3  4  1  0
  4  5  2  0
  5  6  1  0
  6  7  1  0
  7  8  1  0
  8  9  2  0
  9 10  1  0
 10 11  1  0
 11 12  1  0
 12 13  2  0
 13 14  1  0
 14 15  2  0
 15 16  1  0
 16 17  2  0
  5 18  1  0
 18 19  2  0
 19  2  1  0
 13  8  1  0
 17 12  1  0
M  END
>  <IC50>  (157) 
2137.96

>  <cmpdNO>  (157) 
161

$$$$

     RDKit          2D

 19 21  0  0  0  0  0  0  0  0999 V2000
   -6.8098   -1.1184    0.0000 Cl  0  0  0  0  0  0  0  0  0  0  0  0
   -5.4126   -0.5727    0.0000 C   0  0  0  0  0  0  0  0  0  0  0  0
   -5.1866    0.9102    0.0000 C   0  0  0  0  0  0  0  0  0  0  0  0
   -3.7894    1.4559    0.0000 C   0  0  0  0  0  0  0  0  0  0  0  0
   -2.6182    0.5188    0.0000 C   0  0  0  0  0  0  0  0  0  0  0  0
   -1.2210    1.0645    0.0000 O   0  0  0  0  0  0  0  0  0  0  0  0
   -0.0497    0.1274    0.0000 C   0  0  0  0  0  0  0  0  0  0  0  0
    1.3475    0.6731    0.0000 C   0  0  0  0  0  0  0  0  0  0  0  0
    1.5734    2.1560    0.0000 N   0  0  0  0  0  0  0  0  0  0  0  0
    2.9706    2.7017    0.0000 C   0  0  0  0  0  0  0  0  0  0  0  0
    4.1419    1.7646    0.0000 C   0  0  0  0  0  0  0  0  0  0  0  0
    3.9159    0.2817    0.0000 C   0  0  0  0  0  0  0  0  0  0  0  0
    2.5187   -0.2640    0.0000 C   0  0  0  0  0  0  0  0  0  0  0  0
    2.2927   -1.7469    0.0000 C   0  0  0  0  0  0  0  0  0  0  0  0
    3.4639   -2.6841    0.0000 C   0  0  0  0  0  0  0  0  0  0  0  0
    4.8611   -2.1383    0.0000 C   0  0  0  0  0  0  0  0  0  0  0  0
    5.0871   -0.6554    0.0000 C   0  0  0  0  0  0  0  0  0  0  0  0
   -2.8442   -0.9641    0.0000 C   0  0  0  0  0  0  0  0  0  0  0  0
   -4.2414   -1.5098    0.0000 C   0  0  0  0  0  0  0  0  0  0  0  0
  1  2  1  0
  2  3  2  0
  3  4  1  0
  4  5  2  0
  5  6  1  0
  6  7  1  0
  7  8  1  0
  8  9  2  0
  9 10  1  0
 10 11  1  0
 11 12  1  0
 12 13  2  0
 13 14  1  0
 14 15  2  0
 15 16  1  0
 16 17  2  0
  5 18  1  0
 18 19  2  0
 19  2  1  0
 13  8  1  0
 17 12  1  0
M  END
>  <IC50>  (158) 
1513.96

>  <cmpdNO>  (158) 
162

$$$$

     RDKit          2D

 15 15  0  0  0  0  0  0  0  0999 V2000
   -1.4466   -1.3239    0.0000 O   0  0  0  0  0  0  0  0  0  0  0  0
   -0.1173   -0.6290    0.0000 N   0  0  0  0  0  0  0  0  0  0  0  0
    1.2262   -1.2960    0.0000 C   0  0  0  0  0  0  0  0  0  0  0  0
    2.2758   -0.2243    0.0000 C   0  0  0  0  0  0  0  0  0  0  0  0
    3.7597   -0.4435    0.0000 C   0  0  0  0  0  0  0  0  0  0  0  0
    4.3118   -1.8382    0.0000 O   0  0  0  0  0  0  0  0  0  0  0  0
    4.6914    0.7320    0.0000 O   0  0  0  0  0  0  0  0  0  0  0  0
    1.5809    1.1050    0.0000 C   0  0  0  0  0  0  0  0  0  0  0  0
    2.2478    2.4485    0.0000 N   0  0  0  0  0  0  0  0  0  0  0  0
    0.1019    0.8549    0.0000 C   0  0  0  0  0  0  0  0  0  0  0  0
   -2.7131   -0.5201    0.0000 C   0  0  0  0  0  0  0  0  0  0  0  0
   -4.0424   -1.2150    0.0000 C   0  0  0  0  0  0  0  0  0  0  0  0
   -5.3089   -0.4113    0.0000 C   0  0  0  0  0  0  0  0  0  0  0  0
   -2.6503    0.9786    0.0000 C   0  0  0  0  0  0  0  0  0  0  0  0
   -3.9167    1.7823    0.0000 C   0  0  0  0  0  0  0  0  0  0  0  0
  1  2  1  0
  2  3  1  0
  3  4  1  0
  4  5  1  0
  5  6  1  0
  5  7  2  0
  4  8  1  0
  8  9  1  0
  8 10  1  0
  1 11  1  0
 11 12  1  0
 12 13  1  0
 11 14  1  0
 14 15  1  0
 10  2  1  0
M  END
>  <IC50>  (159) 
21.87

>  <cmpdNO>  (159) 
163

$$$$

     RDKit          2D

 16 16  0  0  0  0  0  0  0  0999 V2000
   -4.5553   -0.9984    0.0000 O   0  0  0  0  0  0  0  0  0  0  0  0
   -3.0939   -1.3365    0.0000 C   0  0  0  0  0  0  0  0  0  0  0  0
   -2.6560   -2.7712    0.0000 O   0  0  0  0  0  0  0  0  0  0  0  0
   -2.0704   -0.2399    0.0000 C   0  0  0  0  0  0  0  0  0  0  0  0
   -0.5817   -0.4234    0.0000 C   0  0  0  0  0  0  0  0  0  0  0  0
    0.0529    0.9358    0.0000 N   0  0  0  0  0  0  0  0  0  0  0  0
   -1.0437    1.9592    0.0000 C   0  0  0  0  0  0  0  0  0  0  0  0
   -2.3560    1.2326    0.0000 C   0  0  0  0  0  0  0  0  0  0  0  0
   -3.7151    1.8672    0.0000 N   0  0  0  0  0  0  0  0  0  0  0  0
    1.5254    1.2213    0.0000 C   0  0  0  0  0  0  0  0  0  0  0  0
    2.0144    2.6394    0.0000 O   0  0  0  0  0  0  0  0  0  0  0  0
    2.5090    0.0888    0.0000 N   0  0  0  0  0  0  0  0  0  0  0  0
    3.9816    0.3744    0.0000 C   0  0  0  0  0  0  0  0  0  0  0  0
    4.9652   -0.7581    0.0000 C   0  0  0  0  0  0  0  0  0  0  0  0
    2.0200   -1.3292    0.0000 C   0  0  0  0  0  0  0  0  0  0  0  0
    3.0036   -2.4618    0.0000 C   0  0  0  0  0  0  0  0  0  0  0  0
  1  2  1  0
  2  3  2  0
  2  4  1  0
  4  5  1  0
  5  6  1  0
  6  7  1  0
  7  8  1  0
  8  9  1  0
  6 10  1  0
 10 11  2  0
 10 12  1  0
 12 13  1  0
 13 14  1  0
 12 15  1  0
 15 16  1  0
  8  4  1  0
M  END
>  <IC50>  (160) 
25.11

>  <cmpdNO>  (160) 
164

$$$$

     RDKit          2D

 17 17  0  0  0  0  0  0  0  0999 V2000
   -4.5789   -0.9462    0.0000 O   0  0  0  0  0  0  0  0  0  0  0  0
   -3.1144   -1.2707    0.0000 C   0  0  0  0  0  0  0  0  0  0  0  0
   -2.6631   -2.7012    0.0000 O   0  0  0  0  0  0  0  0  0  0  0  0
   -2.1012   -0.1646    0.0000 C   0  0  0  0  0  0  0  0  0  0  0  0
   -0.6108   -0.3341    0.0000 C   0  0  0  0  0  0  0  0  0  0  0  0
    0.0110    1.0309    0.0000 N   0  0  0  0  0  0  0  0  0  0  0  0
   -1.0950    2.0441    0.0000 C   0  0  0  0  0  0  0  0  0  0  0  0
   -2.4005    1.3053    0.0000 C   0  0  0  0  0  0  0  0  0  0  0  0
   -3.7655    1.9271    0.0000 N   0  0  0  0  0  0  0  0  0  0  0  0
    1.4809    1.3302    0.0000 C   0  0  0  0  0  0  0  0  0  0  0  0
    1.9566    2.7527    0.0000 O   0  0  0  0  0  0  0  0  0  0  0  0
    2.4750    0.2069    0.0000 N   0  0  0  0  0  0  0  0  0  0  0  0
    1.9993   -1.2157    0.0000 C   0  0  0  0  0  0  0  0  0  0  0  0
    2.9934   -2.3389    0.0000 C   0  0  0  0  0  0  0  0  0  0  0  0
    0.5294   -1.5149    0.0000 C   0  0  0  0  0  0  0  0  0  0  0  0
    3.9448    0.5062    0.0000 C   0  0  0  0  0  0  0  0  0  0  0  0
    4.9389   -0.6171    0.0000 C   0  0  0  0  0  0  0  0  0  0  0  0
  1  2  1  0
  2  3  2  0
  2  4  1  0
  4  5  1  0
  5  6  1  0
  6  7  1  0
  7  8  1  0
  8  9  1  0
  6 10  1  0
 10 11  2  0
 10 12  1  0
 12 13  1  0
 13 14  1  0
 13 15  1  0
 12 16  1  0
 16 17  1  0
  8  4  1  0
M  END
>  <IC50>  (161) 
1.584

>  <cmpdNO>  (161) 
165

$$$$

     RDKit          2D

 18 18  0  0  0  0  0  0  0  0999 V2000
   -4.8910   -0.6804    0.0000 O   0  0  0  0  0  0  0  0  0  0  0  0
   -3.4557   -1.1161    0.0000 C   0  0  0  0  0  0  0  0  0  0  0  0
   -3.1154   -2.5770    0.0000 O   0  0  0  0  0  0  0  0  0  0  0  0
   -2.3607   -0.0910    0.0000 C   0  0  0  0  0  0  0  0  0  0  0  0
   -0.8877   -0.3743    0.0000 C   0  0  0  0  0  0  0  0  0  0  0  0
   -0.1630    0.9390    0.0000 N   0  0  0  0  0  0  0  0  0  0  0  0
   -1.1882    2.0340    0.0000 C   0  0  0  0  0  0  0  0  0  0  0  0
   -2.5464    1.3975    0.0000 C   0  0  0  0  0  0  0  0  0  0  0  0
   -3.8597    2.1221    0.0000 N   0  0  0  0  0  0  0  0  0  0  0  0
    1.3254    1.1247    0.0000 C   0  0  0  0  0  0  0  0  0  0  0  0
    1.9088    2.5066    0.0000 O   0  0  0  0  0  0  0  0  0  0  0  0
    2.2305   -0.0715    0.0000 N   0  0  0  0  0  0  0  0  0  0  0  0
    3.7189    0.1142    0.0000 C   0  0  0  0  0  0  0  0  0  0  0  0
    4.6240   -1.0820    0.0000 C   0  0  0  0  0  0  0  0  0  0  0  0
    4.3023    1.4961    0.0000 C   0  0  0  0  0  0  0  0  0  0  0  0
    1.6471   -1.4534    0.0000 C   0  0  0  0  0  0  0  0  0  0  0  0
    2.5521   -2.6496    0.0000 C   0  0  0  0  0  0  0  0  0  0  0  0
    0.1586   -1.6391    0.0000 C   0  0  0  0  0  0  0  0  0  0  0  0
  1  2  1  0
  2  3  2  0
  2  4  1  0
  4  5  1  0
  5  6  1  0
  6  7  1  0
  7  8  1  0
  8  9  1  0
  6 10  1  0
 10 11  2  0
 10 12  1  0
 12 13  1  0
 13 14  1  0
 13 15  1  0
 12 16  1  0
 16 17  1  0
 16 18  1  0
  8  4  1  0
M  END
>  <IC50>  (162) 
3.98

>  <cmpdNO>  (162) 
166

$$$$

     RDKit          2D

 18 18  0  0  0  0  0  0  0  0999 V2000
   -4.9204   -1.0027    0.0000 O   0  0  0  0  0  0  0  0  0  0  0  0
   -3.4512   -1.3051    0.0000 C   0  0  0  0  0  0  0  0  0  0  0  0
   -2.9784   -2.7286    0.0000 O   0  0  0  0  0  0  0  0  0  0  0  0
   -2.4547   -0.1839    0.0000 C   0  0  0  0  0  0  0  0  0  0  0  0
   -0.9620   -0.3310    0.0000 C   0  0  0  0  0  0  0  0  0  0  0  0
   -0.3607    1.0432    0.0000 N   0  0  0  0  0  0  0  0  0  0  0  0
   -1.4819    2.0397    0.0000 C   0  0  0  0  0  0  0  0  0  0  0  0
   -2.7761    1.2813    0.0000 C   0  0  0  0  0  0  0  0  0  0  0  0
   -4.1503    1.8825    0.0000 N   0  0  0  0  0  0  0  0  0  0  0  0
    1.1044    1.3646    0.0000 C   0  0  0  0  0  0  0  0  0  0  0  0
    1.5587    2.7942    0.0000 O   0  0  0  0  0  0  0  0  0  0  0  0
    2.1153    0.2564    0.0000 N   0  0  0  0  0  0  0  0  0  0  0  0
    1.6610   -1.1731    0.0000 C   0  0  0  0  0  0  0  0  0  0  0  0
    2.6719   -2.2813    0.0000 C   0  0  0  0  0  0  0  0  0  0  0  0
    0.1959   -1.4945    0.0000 C   0  0  0  0  0  0  0  0  0  0  0  0
    3.5805    0.5778    0.0000 C   0  0  0  0  0  0  0  0  0  0  0  0
    4.5914   -0.5304    0.0000 C   0  0  0  0  0  0  0  0  0  0  0  0
    6.0566   -0.2091    0.0000 O   0  0  0  0  0  0  0  0  0  0  0  0
  1  2  1  0
  2  3  2  0
  2  4  1  0
  4  5  1  0
  5  6  1  0
  6  7  1  0
  7  8  1  0
  8  9  1  0
  6 10  1  0
 10 11  2  0
 10 12  1  0
 12 13  1  0
 13 14  1  0
 13 15  1  0
 12 16  1  0
 16 17  1  0
 17 18  1  0
  8  4  1  0
M  END
>  <IC50>  (163) 
20.89

>  <cmpdNO>  (163) 
167

$$$$

     RDKit          2D

 19 19  0  0  0  0  0  0  0  0999 V2000
   -5.2383   -1.2000    0.0000 O   0  0  0  0  0  0  0  0  0  0  0  0
   -3.7557   -1.4277    0.0000 C   0  0  0  0  0  0  0  0  0  0  0  0
   -3.2115   -2.8255    0.0000 O   0  0  0  0  0  0  0  0  0  0  0  0
   -2.8173   -0.2575    0.0000 C   0  0  0  0  0  0  0  0  0  0  0  0
   -1.3190   -0.3288    0.0000 C   0  0  0  0  0  0  0  0  0  0  0  0
   -0.7881    1.0741    0.0000 N   0  0  0  0  0  0  0  0  0  0  0  0
   -1.9583    2.0125    0.0000 C   0  0  0  0  0  0  0  0  0  0  0  0
   -3.2124    1.1896    0.0000 C   0  0  0  0  0  0  0  0  0  0  0  0
   -4.6153    1.7205    0.0000 N   0  0  0  0  0  0  0  0  0  0  0  0
    0.6589    1.4692    0.0000 C   0  0  0  0  0  0  0  0  0  0  0  0
    1.0403    2.9199    0.0000 O   0  0  0  0  0  0  0  0  0  0  0  0
    1.7246    0.4136    0.0000 N   0  0  0  0  0  0  0  0  0  0  0  0
    1.3433   -1.0372    0.0000 C   0  0  0  0  0  0  0  0  0  0  0  0
    2.4090   -2.0928    0.0000 C   0  0  0  0  0  0  0  0  0  0  0  0
   -0.1037   -1.4323    0.0000 C   0  0  0  0  0  0  0  0  0  0  0  0
    3.1717    0.8087    0.0000 C   0  0  0  0  0  0  0  0  0  0  0  0
    4.2373   -0.2469    0.0000 C   0  0  0  0  0  0  0  0  0  0  0  0
    5.6844    0.1482    0.0000 C   0  0  0  0  0  0  0  0  0  0  0  0
    6.7501   -0.9074    0.0000 O   0  0  0  0  0  0  0  0  0  0  0  0
  1  2  1  0
  2  3  2  0
  2  4  1  0
  4  5  1  0
  5  6  1  0
  6  7  1  0
  7  8  1  0
  8  9  1  0
  6 10  1  0
 10 11  2  0
 10 12  1  0
 12 13  1  0
 13 14  1  0
 13 15  1  0
 12 16  1  0
 16 17  1  0
 17 18  1  0
 18 19  1  0
  8  4  1  0
M  END
>  <IC50>  (164) 
2.089

>  <cmpdNO>  (164) 
168

$$$$

     RDKit          2D

 21 21  0  0  0  0  0  0  0  0999 V2000
   -6.0007   -1.4301    0.0000 O   0  0  0  0  0  0  0  0  0  0  0  0
   -4.5079   -1.5766    0.0000 C   0  0  0  0  0  0  0  0  0  0  0  0
   -3.8883   -2.9427    0.0000 O   0  0  0  0  0  0  0  0  0  0  0  0
   -3.6346   -0.3570    0.0000 C   0  0  0  0  0  0  0  0  0  0  0  0
   -2.1347   -0.3466    0.0000 C   0  0  0  0  0  0  0  0  0  0  0  0
   -1.6810    1.0831    0.0000 N   0  0  0  0  0  0  0  0  0  0  0  0
   -2.9006    1.9564    0.0000 C   0  0  0  0  0  0  0  0  0  0  0  0
   -4.1080    1.0663    0.0000 C   0  0  0  0  0  0  0  0  0  0  0  0
   -5.5378    1.5200    0.0000 N   0  0  0  0  0  0  0  0  0  0  0  0
   -0.2577    1.5565    0.0000 C   0  0  0  0  0  0  0  0  0  0  0  0
    0.0440    3.0258    0.0000 O   0  0  0  0  0  0  0  0  0  0  0  0
    0.8639    0.5605    0.0000 N   0  0  0  0  0  0  0  0  0  0  0  0
    0.5622   -0.9088    0.0000 C   0  0  0  0  0  0  0  0  0  0  0  0
    1.6839   -1.9048    0.0000 C   0  0  0  0  0  0  0  0  0  0  0  0
   -0.8611   -1.3822    0.0000 C   0  0  0  0  0  0  0  0  0  0  0  0
    2.2873    1.0339    0.0000 C   0  0  0  0  0  0  0  0  0  0  0  0
    3.4089    0.0380    0.0000 C   0  0  0  0  0  0  0  0  0  0  0  0
    4.8323    0.5113    0.0000 C   0  0  0  0  0  0  0  0  0  0  0  0
    5.9539   -0.4846    0.0000 C   0  0  0  0  0  0  0  0  0  0  0  0
    7.3772   -0.0113    0.0000 C   0  0  0  0  0  0  0  0  0  0  0  0
    8.4989   -1.0072    0.0000 O   0  0  0  0  0  0  0  0  0  0  0  0
  1  2  1  0
  2  3  2  0
  2  4  1  0
  4  5  1  0
  5  6  1  0
  6  7  1  0
  7  8  1  0
  8  9  1  0
  6 10  1  0
 10 11  2  0
 10 12  1  0
 12 13  1  0
 13 14  1  0
 13 15  1  0
 12 16  1  0
 16 17  1  0
 17 18  1  0
 18 19  1  0
 19 20  1  0
 20 21  1  0
  8  4  1  0
M  END
>  <IC50>  (165) 
1.995

>  <cmpdNO>  (165) 
169

$$$$

     RDKit          2D

 21 21  0  0  0  0  0  0  0  0999 V2000
   -5.8515   -1.4420    0.0000 O   0  0  0  0  0  0  0  0  0  0  0  0
   -4.3573   -1.5739    0.0000 C   0  0  0  0  0  0  0  0  0  0  0  0
   -3.7245   -2.9339    0.0000 O   0  0  0  0  0  0  0  0  0  0  0  0
   -3.4959   -0.3459    0.0000 C   0  0  0  0  0  0  0  0  0  0  0  0
   -1.9961   -0.3210    0.0000 C   0  0  0  0  0  0  0  0  0  0  0  0
   -1.5564    1.1131    0.0000 N   0  0  0  0  0  0  0  0  0  0  0  0
   -2.7844    1.9745    0.0000 C   0  0  0  0  0  0  0  0  0  0  0  0
   -3.9831    1.0728    0.0000 C   0  0  0  0  0  0  0  0  0  0  0  0
   -5.4172    1.5125    0.0000 N   0  0  0  0  0  0  0  0  0  0  0  0
   -0.1377    1.6003    0.0000 C   0  0  0  0  0  0  0  0  0  0  0  0
    0.1497    3.0725    0.0000 O   0  0  0  0  0  0  0  0  0  0  0  0
    0.9936    0.6153    0.0000 N   0  0  0  0  0  0  0  0  0  0  0  0
    0.7061   -0.8569    0.0000 C   0  0  0  0  0  0  0  0  0  0  0  0
    1.8374   -1.8419    0.0000 C   0  0  0  0  0  0  0  0  0  0  0  0
   -0.7125   -1.3441    0.0000 C   0  0  0  0  0  0  0  0  0  0  0  0
    2.4123    1.1025    0.0000 C   0  0  0  0  0  0  0  0  0  0  0  0
    3.5435    0.1175    0.0000 C   0  0  0  0  0  0  0  0  0  0  0  0
    4.9622    0.6047    0.0000 C   0  0  0  0  0  0  0  0  0  0  0  0
    6.0934   -0.3804    0.0000 C   0  0  0  0  0  0  0  0  0  0  0  0
    7.5121    0.1068    0.0000 O   0  0  0  0  0  0  0  0  0  0  0  0
    5.8060   -1.8526    0.0000 O   0  0  0  0  0  0  0  0  0  0  0  0
  1  2  1  0
  2  3  2  0
  2  4  1  0
  4  5  1  0
  5  6  1  0
  6  7  1  0
  7  8  1  0
  8  9  1  0
  6 10  1  0
 10 11  2  0
 10 12  1  0
 12 13  1  0
 13 14  1  0
 13 15  1  0
 12 16  1  0
 16 17  1  0
 17 18  1  0
 18 19  1  0
 19 20  1  0
 19 21  2  0
  8  4  1  0
M  END
>  <IC50>  (166) 
19.05

>  <cmpdNO>  (166) 
170

$$$$

     RDKit          2D

 22 22  0  0  0  0  0  0  0  0999 V2000
   -6.3907   -1.3109    0.0000 O   0  0  0  0  0  0  0  0  0  0  0  0
   -4.9027   -1.5007    0.0000 C   0  0  0  0  0  0  0  0  0  0  0  0
   -4.3232   -2.8843    0.0000 O   0  0  0  0  0  0  0  0  0  0  0  0
   -3.9943   -0.3071    0.0000 C   0  0  0  0  0  0  0  0  0  0  0  0
   -2.4947   -0.3404    0.0000 C   0  0  0  0  0  0  0  0  0  0  0  0
   -1.9996    1.0755    0.0000 N   0  0  0  0  0  0  0  0  0  0  0  0
   -3.1932    1.9839    0.0000 C   0  0  0  0  0  0  0  0  0  0  0  0
   -4.4261    1.1294    0.0000 C   0  0  0  0  0  0  0  0  0  0  0  0
   -5.8420    1.6245    0.0000 N   0  0  0  0  0  0  0  0  0  0  0  0
   -0.5631    1.5073    0.0000 C   0  0  0  0  0  0  0  0  0  0  0  0
   -0.2187    2.9672    0.0000 O   0  0  0  0  0  0  0  0  0  0  0  0
    0.5291    0.4791    0.0000 N   0  0  0  0  0  0  0  0  0  0  0  0
    0.1847   -0.9809    0.0000 C   0  0  0  0  0  0  0  0  0  0  0  0
    1.2769   -2.0091    0.0000 C   0  0  0  0  0  0  0  0  0  0  0  0
   -1.2518   -1.4126    0.0000 C   0  0  0  0  0  0  0  0  0  0  0  0
    1.9656    0.9108    0.0000 C   0  0  0  0  0  0  0  0  0  0  0  0
    3.0578   -0.1174    0.0000 C   0  0  0  0  0  0  0  0  0  0  0  0
    4.4943    0.3143    0.0000 C   0  0  0  0  0  0  0  0  0  0  0  0
    5.5864   -0.7139    0.0000 C   0  0  0  0  0  0  0  0  0  0  0  0
    7.0230   -0.2822    0.0000 C   0  0  0  0  0  0  0  0  0  0  0  0
    8.1151   -1.3104    0.0000 O   0  0  0  0  0  0  0  0  0  0  0  0
    7.3673    1.1778    0.0000 O   0  0  0  0  0  0  0  0  0  0  0  0
  1  2  1  0
  2  3  2  0
  2  4  1  0
  4  5  1  0
  5  6  1  0
  6  7  1  0
  7  8  1  0
  8  9  1  0
  6 10  1  0
 10 11  2  0
 10 12  1  0
 12 13  1  0
 13 14  1  0
 13 15  1  0
 12 16  1  0
 16 17  1  0
 17 18  1  0
 18 19  1  0
 19 20  1  0
 20 21  1  0
 20 22  2  0
  8  4  1  0
M  END
>  <IC50>  (167) 
1.288

>  <cmpdNO>  (167) 
171

$$$$

     RDKit          2D

 19 19  0  0  0  0  0  0  0  0999 V2000
   -5.2383   -1.2000    0.0000 O   0  0  0  0  0  0  0  0  0  0  0  0
   -3.7557   -1.4277    0.0000 C   0  0  0  0  0  0  0  0  0  0  0  0
   -3.2115   -2.8255    0.0000 O   0  0  0  0  0  0  0  0  0  0  0  0
   -2.8173   -0.2575    0.0000 C   0  0  0  0  0  0  0  0  0  0  0  0
   -1.3190   -0.3288    0.0000 C   0  0  0  0  0  0  0  0  0  0  0  0
   -0.7881    1.0741    0.0000 N   0  0  0  0  0  0  0  0  0  0  0  0
   -1.9583    2.0125    0.0000 C   0  0  0  0  0  0  0  0  0  0  0  0
   -3.2124    1.1896    0.0000 C   0  0  0  0  0  0  0  0  0  0  0  0
   -4.6153    1.7205    0.0000 N   0  0  0  0  0  0  0  0  0  0  0  0
    0.6589    1.4692    0.0000 C   0  0  0  0  0  0  0  0  0  0  0  0
    1.0403    2.9199    0.0000 O   0  0  0  0  0  0  0  0  0  0  0  0
    1.7246    0.4136    0.0000 N   0  0  0  0  0  0  0  0  0  0  0  0
    1.3433   -1.0372    0.0000 C   0  0  0  0  0  0  0  0  0  0  0  0
    2.4090   -2.0928    0.0000 C   0  0  0  0  0  0  0  0  0  0  0  0
   -0.1037   -1.4323    0.0000 C   0  0  0  0  0  0  0  0  0  0  0  0
    3.1717    0.8087    0.0000 C   0  0  0  0  0  0  0  0  0  0  0  0
    4.2373   -0.2469    0.0000 C   0  0  0  0  0  0  0  0  0  0  0  0
    5.6844    0.1482    0.0000 C   0  0  0  0  0  0  0  0  0  0  0  0
    6.7501   -0.9074    0.0000 N   0  0  0  0  0  0  0  0  0  0  0  0
  1  2  1  0
  2  3  2  0
  2  4  1  0
  4  5  1  0
  5  6  1  0
  6  7  1  0
  7  8  1  0
  8  9  1  0
  6 10  1  0
 10 11  2  0
 10 12  1  0
 12 13  1  0
 13 14  1  0
 13 15  1  0
 12 16  1  0
 16 17  1  0
 17 18  1  0
 18 19  1  0
  8  4  1  0
M  END
>  <IC50>  (168) 
45.7

>  <cmpdNO>  (168) 
172

$$$$

     RDKit          2D

 23 24  0  0  0  0  0  0  0  0999 V2000
   -6.7579   -0.8605    0.0000 O   0  0  0  0  0  0  0  0  0  0  0  0
   -5.4297   -1.5574    0.0000 C   0  0  0  0  0  0  0  0  0  0  0  0
   -5.3691   -3.0562    0.0000 O   0  0  0  0  0  0  0  0  0  0  0  0
   -4.1620   -0.7556    0.0000 C   0  0  0  0  0  0  0  0  0  0  0  0
   -2.7681   -1.3099    0.0000 C   0  0  0  0  0  0  0  0  0  0  0  0
   -1.8102   -0.1556    0.0000 N   0  0  0  0  0  0  0  0  0  0  0  0
   -2.6121    1.1121    0.0000 C   0  0  0  0  0  0  0  0  0  0  0  0
   -4.0655    0.7413    0.0000 C   0  0  0  0  0  0  0  0  0  0  0  0
   -5.2198    1.6992    0.0000 N   0  0  0  0  0  0  0  0  0  0  0  0
   -0.3133   -0.2520    0.0000 C   0  0  0  0  0  0  0  0  0  0  0  0
    0.3516   -1.5966    0.0000 O   0  0  0  0  0  0  0  0  0  0  0  0
    0.5186    0.9961    0.0000 N   0  0  0  0  0  0  0  0  0  0  0  0
   -0.1463    2.3407    0.0000 C   0  0  0  0  0  0  0  0  0  0  0  0
   -1.6432    2.4371    0.0000 C   0  0  0  0  0  0  0  0  0  0  0  0
    0.6857    3.5888    0.0000 C   0  0  0  0  0  0  0  0  0  0  0  0
    2.0155    0.8997    0.0000 C   0  0  0  0  0  0  0  0  0  0  0  0
    2.6804   -0.4449    0.0000 C   0  0  0  0  0  0  0  0  0  0  0  0
    4.1773   -0.5413    0.0000 C   0  0  0  0  0  0  0  0  0  0  0  0
    4.8423   -1.8859    0.0000 N   0  0  0  0  0  0  0  0  0  0  0  0
    6.3392   -1.9823    0.0000 C   0  0  0  0  0  0  0  0  0  0  0  0
    7.1711   -0.7342    0.0000 C   0  0  0  0  0  0  0  0  0  0  0  0
    6.5062    0.6104    0.0000 C   0  0  0  0  0  0  0  0  0  0  0  0
    5.0093    0.7068    0.0000 C   0  0  0  0  0  0  0  0  0  0  0  0
  1  2  1  0
  2  3  2  0
  2  4  1  0
  4  5  1  0
  5  6  1  0
  6  7  1  0
  7  8  1  0
  8  9  1  0
  6 10  1  0
 10 11  2  0
 10 12  1  0
 12 13  1  0
 13 14  1  0
 13 15  1  0
 12 16  1  0
 16 17  1  0
 17 18  1  0
 18 19  2  0
 19 20  1  0
 20 21  2  0
 21 22  1  0
 22 23  2  0
  8  4  1  0
 23 18  1  0
M  END
>  <IC50>  (169) 
1.289

>  <cmpdNO>  (169) 
173

$$$$

     RDKit          2D

 21 21  0  0  0  0  0  0  0  0999 V2000
   -2.8283   -3.5518    0.0000 O   0  0  0  0  0  0  0  0  0  0  0  0
   -1.3848   -3.1442    0.0000 C   0  0  0  0  0  0  0  0  0  0  0  0
   -0.3100   -4.1905    0.0000 O   0  0  0  0  0  0  0  0  0  0  0  0
   -1.0160   -1.6902    0.0000 C   0  0  0  0  0  0  0  0  0  0  0  0
    0.3770   -1.1339    0.0000 C   0  0  0  0  0  0  0  0  0  0  0  0
    0.2784    0.3628    0.0000 N   0  0  0  0  0  0  0  0  0  0  0  0
    1.4314    1.3223    0.0000 C   0  0  0  0  0  0  0  0  0  0  0  0
    1.1769    2.8006    0.0000 O   0  0  0  0  0  0  0  0  0  0  0  0
    2.8388    0.8036    0.0000 N   0  0  0  0  0  0  0  0  0  0  0  0
    3.0933   -0.6746    0.0000 C   0  0  0  0  0  0  0  0  0  0  0  0
    4.5008   -1.1934    0.0000 C   0  0  0  0  0  0  0  0  0  0  0  0
    1.9404   -1.6342    0.0000 C   0  0  0  0  0  0  0  0  0  0  0  0
    3.9918    1.7631    0.0000 C   0  0  0  0  0  0  0  0  0  0  0  0
    5.3992    1.2444    0.0000 C   0  0  0  0  0  0  0  0  0  0  0  0
   -1.1755    0.7316    0.0000 C   0  0  0  0  0  0  0  0  0  0  0  0
   -1.7318    2.1246    0.0000 N   0  0  0  0  0  0  0  0  0  0  0  0
   -3.2164    2.3394    0.0000 C   0  0  0  0  0  0  0  0  0  0  0  0
   -4.1446    1.1611    0.0000 O   0  0  0  0  0  0  0  0  0  0  0  0
   -3.7726    3.7324    0.0000 C   0  0  0  0  0  0  0  0  0  0  0  0
   -1.9756   -0.5373    0.0000 C   0  0  0  0  0  0  0  0  0  0  0  0
   -3.4723   -0.6359    0.0000 N   0  0  0  0  0  0  0  0  0  0  0  0
  1  2  1  0
  2  3  2  0
  2  4  1  0
  4  5  1  0
  5  6  1  0
  6  7  1  0
  7  8  2  0
  7  9  1  0
  9 10  1  0
 10 11  1  0
 10 12  1  0
  9 13  1  0
 13 14  1  0
  6 15  1  0
 15 16  1  0
 16 17  1  0
 17 18  2  0
 17 19  1  0
 15 20  1  0
 20 21  1  0
 20  4  1  0
M  END
>  <IC50>  (170) 
7.585

>  <cmpdNO>  (170) 
174

$$$$

     RDKit          2D

 22 22  0  0  0  0  0  0  0  0999 V2000
   -1.7186   -4.2040    0.0000 O   0  0  0  0  0  0  0  0  0  0  0  0
   -0.3978   -3.4930    0.0000 C   0  0  0  0  0  0  0  0  0  0  0  0
    0.8783   -4.2814    0.0000 O   0  0  0  0  0  0  0  0  0  0  0  0
   -0.3531   -1.9937    0.0000 C   0  0  0  0  0  0  0  0  0  0  0  0
    0.8861   -1.1485    0.0000 C   0  0  0  0  0  0  0  0  0  0  0  0
    0.4653    0.2912    0.0000 N   0  0  0  0  0  0  0  0  0  0  0  0
    1.3827    1.4779    0.0000 C   0  0  0  0  0  0  0  0  0  0  0  0
    0.8137    2.8658    0.0000 O   0  0  0  0  0  0  0  0  0  0  0  0
    2.8692    1.2768    0.0000 N   0  0  0  0  0  0  0  0  0  0  0  0
    3.4382   -0.1111    0.0000 C   0  0  0  0  0  0  0  0  0  0  0  0
    4.9247   -0.3123    0.0000 C   0  0  0  0  0  0  0  0  0  0  0  0
    2.5208   -1.2978    0.0000 C   0  0  0  0  0  0  0  0  0  0  0  0
    3.7866    2.4635    0.0000 C   0  0  0  0  0  0  0  0  0  0  0  0
    5.2731    2.2623    0.0000 C   0  0  0  0  0  0  0  0  0  0  0  0
   -1.0340    0.3359    0.0000 C   0  0  0  0  0  0  0  0  0  0  0  0
   -1.8792    1.5752    0.0000 N   0  0  0  0  0  0  0  0  0  0  0  0
   -3.3750    1.4629    0.0000 C   0  0  0  0  0  0  0  0  0  0  0  0
   -4.0256    0.1114    0.0000 O   0  0  0  0  0  0  0  0  0  0  0  0
   -4.2201    2.7021    0.0000 C   0  0  0  0  0  0  0  0  0  0  0  0
   -5.7159    2.5899    0.0000 C   0  0  0  0  0  0  0  0  0  0  0  0
   -1.5398   -1.0762    0.0000 C   0  0  0  0  0  0  0  0  0  0  0  0
   -2.9796   -1.4970    0.0000 N   0  0  0  0  0  0  0  0  0  0  0  0
  1  2  1  0
  2  3  2  0
  2  4  1  0
  4  5  1  0
  5  6  1  0
  6  7  1  0
  7  8  2  0
  7  9  1  0
  9 10  1  0
 10 11  1  0
 10 12  1  0
  9 13  1  0
 13 14  1  0
  6 15  1  0
 15 16  1  0
 16 17  1  0
 17 18  2  0
 17 19  1  0
 19 20  1  0
 15 21  1  0
 21 22  1  0
 21  4  1  0
M  END
>  <IC50>  (171) 
15.84

>  <cmpdNO>  (171) 
175

$$$$

     RDKit          2D

 22 22  0  0  0  0  0  0  0  0999 V2000
   -1.7186   -4.2040    0.0000 O   0  0  0  0  0  0  0  0  0  0  0  0
   -0.3978   -3.4930    0.0000 C   0  0  0  0  0  0  0  0  0  0  0  0
    0.8783   -4.2814    0.0000 O   0  0  0  0  0  0  0  0  0  0  0  0
   -0.3531   -1.9937    0.0000 C   0  0  0  0  0  0  0  0  0  0  0  0
    0.8861   -1.1485    0.0000 C   0  0  0  0  0  0  0  0  0  0  0  0
    0.4653    0.2912    0.0000 N   0  0  0  0  0  0  0  0  0  0  0  0
    1.3827    1.4779    0.0000 C   0  0  0  0  0  0  0  0  0  0  0  0
    0.8137    2.8658    0.0000 O   0  0  0  0  0  0  0  0  0  0  0  0
    2.8692    1.2768    0.0000 N   0  0  0  0  0  0  0  0  0  0  0  0
    3.4382   -0.1111    0.0000 C   0  0  0  0  0  0  0  0  0  0  0  0
    4.9247   -0.3123    0.0000 C   0  0  0  0  0  0  0  0  0  0  0  0
    2.5208   -1.2978    0.0000 C   0  0  0  0  0  0  0  0  0  0  0  0
    3.7866    2.4635    0.0000 C   0  0  0  0  0  0  0  0  0  0  0  0
    5.2731    2.2623    0.0000 C   0  0  0  0  0  0  0  0  0  0  0  0
   -1.0340    0.3359    0.0000 C   0  0  0  0  0  0  0  0  0  0  0  0
   -1.8792    1.5752    0.0000 N   0  0  0  0  0  0  0  0  0  0  0  0
   -3.3750    1.4629    0.0000 C   0  0  0  0  0  0  0  0  0  0  0  0
   -4.0256    0.1114    0.0000 O   0  0  0  0  0  0  0  0  0  0  0  0
   -4.2201    2.7021    0.0000 C   0  0  0  0  0  0  0  0  0  0  0  0
   -5.7159    2.5899    0.0000 C   0  0  0  0  0  0  0  0  0  0  0  0
   -1.5398   -1.0762    0.0000 C   0  0  0  0  0  0  0  0  0  0  0  0
   -2.9796   -1.4970    0.0000 N   0  0  0  0  0  0  0  0  0  0  0  0
  1  2  1  0
  2  3  2  0
  2  4  1  0
  4  5  1  0
  5  6  1  0
  6  7  1  0
  7  8  2  0
  7  9  1  0
  9 10  1  0
 10 11  1  0
 10 12  1  0
  9 13  1  0
 13 14  1  0
  6 15  1  0
 15 16  1  0
 16 17  1  0
 17 18  2  0
 17 19  1  0
 19 20  2  0
 15 21  1  0
 21 22  1  0
 21  4  1  0
M  END
>  <IC50>  (172) 
95.49

>  <cmpdNO>  (172) 
176

$$$$

     RDKit          2D

 22 22  0  0  0  0  0  0  0  0999 V2000
   -3.2607   -1.9443    0.0000 S   0  0  0  0  0  0  0  0  0  0  0  0
   -3.3394   -0.4463    0.0000 O   0  0  0  0  0  0  0  0  0  0  0  0
   -3.1820   -3.4422    0.0000 O   0  0  0  0  0  0  0  0  0  0  0  0
   -1.7628   -1.8655    0.0000 N   0  0  0  0  0  0  0  0  0  0  0  0
   -1.0820   -0.5289    0.0000 C   0  0  0  0  0  0  0  0  0  0  0  0
    0.3995   -0.2941    0.0000 N   0  0  0  0  0  0  0  0  0  0  0  0
    0.6339    1.1875    0.0000 C   0  0  0  0  0  0  0  0  0  0  0  0
   -0.7027    1.8683    0.0000 C   0  0  0  0  0  0  0  0  0  0  0  0
   -0.9375    3.3498    0.0000 C   0  0  0  0  0  0  0  0  0  0  0  0
    0.2281    4.2939    0.0000 O   0  0  0  0  0  0  0  0  0  0  0  0
   -2.3380    3.8871    0.0000 O   0  0  0  0  0  0  0  0  0  0  0  0
   -1.7632    0.8075    0.0000 C   0  0  0  0  0  0  0  0  0  0  0  0
   -3.2447    1.0419    0.0000 N   0  0  0  0  0  0  0  0  0  0  0  0
    1.4603   -1.3546    0.0000 C   0  0  0  0  0  0  0  0  0  0  0  0
    1.0723   -2.8035    0.0000 O   0  0  0  0  0  0  0  0  0  0  0  0
    2.9092   -0.9661    0.0000 N   0  0  0  0  0  0  0  0  0  0  0  0
    3.2972    0.4828    0.0000 C   0  0  0  0  0  0  0  0  0  0  0  0
    4.7460    0.8712    0.0000 C   0  0  0  0  0  0  0  0  0  0  0  0
    2.2364    1.5433    0.0000 C   0  0  0  0  0  0  0  0  0  0  0  0
    3.9700   -2.0266    0.0000 C   0  0  0  0  0  0  0  0  0  0  0  0
    5.4188   -1.6382    0.0000 C   0  0  0  0  0  0  0  0  0  0  0  0
   -4.7586   -2.0230    0.0000 C   0  0  0  0  0  0  0  0  0  0  0  0
  1  2  2  0
  1  3  2  0
  1  4  1  0
  4  5  1  0
  5  6  1  0
  6  7  1  0
  7  8  1  0
  8  9  1  0
  9 10  1  0
  9 11  2  0
  8 12  1  0
 12 13  1  0
  6 14  1  0
 14 15  2  0
 14 16  1  0
 16 17  1  0
 17 18  1  0
 17 19  1  0
 16 20  1  0
 20 21  1  0
  1 22  1  0
 12  5  1  0
M  END
>  <IC50>  (173) 
128.83

>  <cmpdNO>  (173) 
177

$$$$

     RDKit          2D

 17 17  0  0  0  0  0  0  0  0999 V2000
   -3.7764   -2.6864    0.0000 O   0  0  0  0  0  0  0  0  0  0  0  0
   -2.2807   -2.8000    0.0000 C   0  0  0  0  0  0  0  0  0  0  0  0
   -1.6313   -4.1521    0.0000 O   0  0  0  0  0  0  0  0  0  0  0  0
   -1.4345   -1.5615    0.0000 C   0  0  0  0  0  0  0  0  0  0  0  0
    0.0649   -1.5182    0.0000 C   0  0  0  0  0  0  0  0  0  0  0  0
    0.4870   -0.0788    0.0000 C   0  0  0  0  0  0  0  0  0  0  0  0
    1.8996    0.4258    0.0000 C   0  0  0  0  0  0  0  0  0  0  0  0
    3.0429   -0.5453    0.0000 N   0  0  0  0  0  0  0  0  0  0  0  0
    4.4555   -0.0407    0.0000 C   0  0  0  0  0  0  0  0  0  0  0  0
    4.7248    1.4349    0.0000 O   0  0  0  0  0  0  0  0  0  0  0  0
    5.5987   -1.0118    0.0000 C   0  0  0  0  0  0  0  0  0  0  0  0
   -0.7515    0.7674    0.0000 C   0  0  0  0  0  0  0  0  0  0  0  0
   -0.7948    2.2668    0.0000 N   0  0  0  0  0  0  0  0  0  0  0  0
   -2.1150    2.9790    0.0000 C   0  0  0  0  0  0  0  0  0  0  0  0
   -2.1584    4.4783    0.0000 N   0  0  0  0  0  0  0  0  0  0  0  0
   -3.3918    2.1917    0.0000 N   0  0  0  0  0  0  0  0  0  0  0  0
   -1.9390   -0.1489    0.0000 C   0  0  0  0  0  0  0  0  0  0  0  0
  1  2  1  0
  2  3  2  0
  2  4  1  0
  4  5  1  0
  5  6  1  0
  6  7  1  0
  7  8  1  0
  8  9  1  0
  9 10  2  0
  9 11  1  0
  6 12  1  0
 12 13  1  0
 13 14  1  0
 14 15  1  0
 14 16  2  0
 12 17  1  0
 17  4  1  0
M  END
>  <IC50>  (174) 
107.16

>  <cmpdNO>  (174) 
178

$$$$

     RDKit          2D

 23 24  0  0  0  0  0  0  0  0999 V2000
   -1.5328   -3.8817    0.0000 O   0  0  0  0  0  0  0  0  0  0  0  0
   -2.1636   -2.5208    0.0000 C   0  0  0  0  0  0  0  0  0  0  0  0
   -1.4334   -1.2106    0.0000 N   0  0  0  0  0  0  0  0  0  0  0  0
    0.0558   -1.0312    0.0000 C   0  0  0  0  0  0  0  0  0  0  0  0
    0.9558   -2.2312    0.0000 C   0  0  0  0  0  0  0  0  0  0  0  0
    2.4451   -2.0517    0.0000 C   0  0  0  0  0  0  0  0  0  0  0  0
    3.0343   -0.6723    0.0000 C   0  0  0  0  0  0  0  0  0  0  0  0
    2.1343    0.5277    0.0000 C   0  0  0  0  0  0  0  0  0  0  0  0
    0.6451    0.3483    0.0000 C   0  0  0  0  0  0  0  0  0  0  0  0
   -0.2549    1.5483    0.0000 N   0  0  0  0  0  0  0  0  0  0  0  0
    0.3343    2.9277    0.0000 C   0  0  0  0  0  0  0  0  0  0  0  0
   -0.5656    4.1277    0.0000 N   0  0  0  0  0  0  0  0  0  0  0  0
    1.8236    3.1071    0.0000 N   0  0  0  0  0  0  0  0  0  0  0  0
    4.5235   -0.4929    0.0000 C   0  0  0  0  0  0  0  0  0  0  0  0
    5.4235   -1.6929    0.0000 O   0  0  0  0  0  0  0  0  0  0  0  0
    5.1128    0.8865    0.0000 O   0  0  0  0  0  0  0  0  0  0  0  0
   -2.4539   -0.1112    0.0000 C   0  0  0  0  0  0  0  0  0  0  0  0
   -3.8148   -0.7420    0.0000 C   0  0  0  0  0  0  0  0  0  0  0  0
   -3.6354   -2.2313    0.0000 C   0  0  0  0  0  0  0  0  0  0  0  0
   -3.2235    1.1763    0.0000 C   0  0  0  0  0  0  0  0  0  0  0  0
   -4.7233    1.1535    0.0000 O   0  0  0  0  0  0  0  0  0  0  0  0
   -1.2539    0.7888    0.0000 C   0  0  0  0  0  0  0  0  0  0  0  0
   -1.4333    2.2780    0.0000 O   0  0  0  0  0  0  0  0  0  0  0  0
  1  2  2  0
  2  3  1  0
  3  4  1  0
  4  5  2  0
  5  6  1  0
  6  7  2  0
  7  8  1  0
  8  9  2  0
  9 10  1  0
 10 11  2  0
 11 12  1  0
 11 13  1  0
  7 14  1  0
 14 15  1  0
 14 16  2  0
  3 17  1  0
 17 18  1  0
 18 19  1  0
 17 20  1  0
 20 21  1  0
 17 22  1  0
 22 23  1  0
 19  2  1  0
  9  4  1  0
M  END
>  <IC50>  (175) 
4.57

>  <cmpdNO>  (175) 
181

$$$$

     RDKit          2D

 19 20  0  0  0  0  0  0  0  0999 V2000
   -2.9405   -2.9453    0.0000 O   0  0  0  0  0  0  0  0  0  0  0  0
   -3.2035   -1.4686    0.0000 C   0  0  0  0  0  0  0  0  0  0  0  0
   -2.1634   -0.3878    0.0000 N   0  0  0  0  0  0  0  0  0  0  0  0
   -2.8699    0.9354    0.0000 C   0  0  0  0  0  0  0  0  0  0  0  0
   -4.3467    0.6724    0.0000 C   0  0  0  0  0  0  0  0  0  0  0  0
   -4.5529   -0.8134    0.0000 C   0  0  0  0  0  0  0  0  0  0  0  0
   -0.6777   -0.5940    0.0000 C   0  0  0  0  0  0  0  0  0  0  0  0
   -0.1134   -1.9838    0.0000 C   0  0  0  0  0  0  0  0  0  0  0  0
    1.3724   -2.1900    0.0000 C   0  0  0  0  0  0  0  0  0  0  0  0
    2.2939   -1.0064    0.0000 C   0  0  0  0  0  0  0  0  0  0  0  0
    1.7296    0.3834    0.0000 C   0  0  0  0  0  0  0  0  0  0  0  0
    0.2438    0.5896    0.0000 C   0  0  0  0  0  0  0  0  0  0  0  0
   -0.3205    1.9794    0.0000 N   0  0  0  0  0  0  0  0  0  0  0  0
    0.6009    3.1630    0.0000 C   0  0  0  0  0  0  0  0  0  0  0  0
    0.0366    4.5528    0.0000 N   0  0  0  0  0  0  0  0  0  0  0  0
    2.0867    2.9568    0.0000 N   0  0  0  0  0  0  0  0  0  0  0  0
    3.7796   -1.2126    0.0000 C   0  0  0  0  0  0  0  0  0  0  0  0
    4.3439   -2.6024    0.0000 O   0  0  0  0  0  0  0  0  0  0  0  0
    4.7011   -0.0290    0.0000 O   0  0  0  0  0  0  0  0  0  0  0  0
  1  2  2  0
  2  3  1  0
  3  4  1  0
  4  5  1  0
  5  6  1  0
  3  7  1  0
  7  8  2  0
  8  9  1  0
  9 10  2  0
 10 11  1  0
 11 12  2  0
 12 13  1  0
 13 14  2  0
 14 15  1  0
 14 16  1  0
 10 17  1  0
 17 18  1  0
 17 19  2  0
  6  2  1  0
 12  7  1  0
M  END
>  <IC50>  (176) 
234.42

>  <cmpdNO>  (176) 
183

$$$$

     RDKit          2D

 16 16  0  0  0  0  0  0  0  0999 V2000
    4.4854   -1.2920    0.0000 O   0  0  0  0  0  0  0  0  0  0  0  0
    3.8044    0.0445    0.0000 C   0  0  0  0  0  0  0  0  0  0  0  0
    4.6214    1.3025    0.0000 O   0  0  0  0  0  0  0  0  0  0  0  0
    2.3065    0.1230    0.0000 C   0  0  0  0  0  0  0  0  0  0  0  0
    1.4895   -1.1350    0.0000 C   0  0  0  0  0  0  0  0  0  0  0  0
   -0.0084   -1.0565    0.0000 C   0  0  0  0  0  0  0  0  0  0  0  0
   -0.8254   -2.3145    0.0000 C   0  0  0  0  0  0  0  0  0  0  0  0
   -2.3234   -2.2359    0.0000 N   0  0  0  0  0  0  0  0  0  0  0  0
   -3.1403   -3.4939    0.0000 O   0  0  0  0  0  0  0  0  0  0  0  0
   -0.6894    0.2800    0.0000 C   0  0  0  0  0  0  0  0  0  0  0  0
   -2.1874    0.3586    0.0000 N   0  0  0  0  0  0  0  0  0  0  0  0
   -2.8683    1.6951    0.0000 C   0  0  0  0  0  0  0  0  0  0  0  0
   -2.0513    2.9531    0.0000 O   0  0  0  0  0  0  0  0  0  0  0  0
   -4.3663    1.7736    0.0000 C   0  0  0  0  0  0  0  0  0  0  0  0
    0.1276    1.5380    0.0000 C   0  0  0  0  0  0  0  0  0  0  0  0
    1.6255    1.4595    0.0000 C   0  0  0  0  0  0  0  0  0  0  0  0
  1  2  1  0
  2  3  2  0
  2  4  1  0
  4  5  2  0
  5  6  1  0
  6  7  1  0
  7  8  2  0
  8  9  1  0
  6 10  2  0
 10 11  1  0
 11 12  1  0
 12 13  2  0
 12 14  1  0
 10 15  1  0
 15 16  2  0
 16  4  1  0
M  END
>  <IC50>  (177) 
4677.35

>  <cmpdNO>  (177) 
185

$$$$

     RDKit          2D

 18 18  0  0  0  0  0  0  0  0999 V2000
    4.3599   -2.3449    0.0000 O   0  0  0  0  0  0  0  0  0  0  0  0
    4.1401   -0.8610    0.0000 C   0  0  0  0  0  0  0  0  0  0  0  0
    5.3152    0.0712    0.0000 O   0  0  0  0  0  0  0  0  0  0  0  0
    2.7452   -0.3095    0.0000 C   0  0  0  0  0  0  0  0  0  0  0  0
    1.5701   -1.2417    0.0000 C   0  0  0  0  0  0  0  0  0  0  0  0
    0.1752   -0.6901    0.0000 C   0  0  0  0  0  0  0  0  0  0  0  0
   -1.0000   -1.6223    0.0000 C   0  0  0  0  0  0  0  0  0  0  0  0
   -2.3949   -1.0708    0.0000 C   0  0  0  0  0  0  0  0  0  0  0  0
   -3.5700   -2.0030    0.0000 N   0  0  0  0  0  0  0  0  0  0  0  0
   -3.3502   -3.4868    0.0000 O   0  0  0  0  0  0  0  0  0  0  0  0
   -4.9649   -1.4514    0.0000 O   0  0  0  0  0  0  0  0  0  0  0  0
   -0.0446    0.7937    0.0000 C   0  0  0  0  0  0  0  0  0  0  0  0
   -1.4395    1.3453    0.0000 N   0  0  0  0  0  0  0  0  0  0  0  0
   -1.6593    2.8291    0.0000 C   0  0  0  0  0  0  0  0  0  0  0  0
   -0.4841    3.7613    0.0000 O   0  0  0  0  0  0  0  0  0  0  0  0
   -3.0542    3.3807    0.0000 C   0  0  0  0  0  0  0  0  0  0  0  0
    1.1305    1.7259    0.0000 C   0  0  0  0  0  0  0  0  0  0  0  0
    2.5254    1.1743    0.0000 C   0  0  0  0  0  0  0  0  0  0  0  0
  1  2  1  0
  2  3  2  0
  2  4  1  0
  4  5  2  0
  5  6  1  0
  6  7  1  0
  7  8  1  0
  8  9  1  0
  9 10  2  0
  9 11  1  0
  6 12  2  0
 12 13  1  0
 13 14  1  0
 14 15  2  0
 14 16  1  0
 12 17  1  0
 17 18  2  0
 18  4  1  0
M  CHG  2   9   1  11  -1
M  END
>  <IC50>  (178) 
2089.29

>  <cmpdNO>  (178) 
186

$$$$

     RDKit          2D

 18 18  0  0  0  0  0  0  0  0999 V2000
    2.5793   -1.5921    0.0000 S   0  0  0  0  0  0  0  0  0  0  0  0
    1.2587   -2.3036    0.0000 O   0  0  0  0  0  0  0  0  0  0  0  0
    3.8998   -0.8807    0.0000 O   0  0  0  0  0  0  0  0  0  0  0  0
    1.8678   -0.2716    0.0000 N   0  0  0  0  0  0  0  0  0  0  0  0
    0.3685   -0.2274    0.0000 C   0  0  0  0  0  0  0  0  0  0  0  0
   -0.4194   -1.5039    0.0000 C   0  0  0  0  0  0  0  0  0  0  0  0
   -1.9188   -1.4597    0.0000 C   0  0  0  0  0  0  0  0  0  0  0  0
   -2.6302   -0.1392    0.0000 C   0  0  0  0  0  0  0  0  0  0  0  0
   -1.8423    1.1372    0.0000 C   0  0  0  0  0  0  0  0  0  0  0  0
   -0.3430    1.0931    0.0000 C   0  0  0  0  0  0  0  0  0  0  0  0
    0.4449    2.3695    0.0000 N   0  0  0  0  0  0  0  0  0  0  0  0
    1.9443    2.3254    0.0000 C   0  0  0  0  0  0  0  0  0  0  0  0
    2.7321    3.6018    0.0000 N   0  0  0  0  0  0  0  0  0  0  0  0
    2.6557    1.0048    0.0000 N   0  0  0  0  0  0  0  0  0  0  0  0
   -4.1296   -0.0951    0.0000 C   0  0  0  0  0  0  0  0  0  0  0  0
   -4.8410    1.2255    0.0000 O   0  0  0  0  0  0  0  0  0  0  0  0
   -4.9175   -1.3715    0.0000 O   0  0  0  0  0  0  0  0  0  0  0  0
    3.2907   -2.9127    0.0000 C   0  0  0  0  0  0  0  0  0  0  0  0
  1  2  2  0
  1  3  2  0
  1  4  1  0
  4  5  1  0
  5  6  2  0
  6  7  1  0
  7  8  2  0
  8  9  1  0
  9 10  2  0
 10 11  1  0
 11 12  2  0
 12 13  1  0
 12 14  1  0
  8 15  1  0
 15 16  1  0
 15 17  2  0
  1 18  1  0
 10  5  1  0
M  END
>  <IC50>  (179) 
75.85

>  <cmpdNO>  (179) 
187

$$$$

     RDKit          2D

 17 17  0  0  0  0  0  0  0  0999 V2000
   -2.7902    1.4310    0.0000 S   0  0  0  0  0  0  0  0  0  0  0  0
   -1.4968    2.1907    0.0000 O   0  0  0  0  0  0  0  0  0  0  0  0
   -4.0836    0.6713    0.0000 O   0  0  0  0  0  0  0  0  0  0  0  0
   -2.0305    0.1376    0.0000 N   0  0  0  0  0  0  0  0  0  0  0  0
   -0.5305    0.1489    0.0000 C   0  0  0  0  0  0  0  0  0  0  0  0
    0.2097    1.4535    0.0000 C   0  0  0  0  0  0  0  0  0  0  0  0
    1.7097    1.4647    0.0000 C   0  0  0  0  0  0  0  0  0  0  0  0
    2.4694    0.1713    0.0000 C   0  0  0  0  0  0  0  0  0  0  0  0
    1.7291   -1.1333    0.0000 C   0  0  0  0  0  0  0  0  0  0  0  0
    0.2292   -1.1445    0.0000 C   0  0  0  0  0  0  0  0  0  0  0  0
   -0.5111   -2.4491    0.0000 C   0  0  0  0  0  0  0  0  0  0  0  0
   -2.0111   -2.4604    0.0000 N   0  0  0  0  0  0  0  0  0  0  0  0
   -2.7513   -3.7650    0.0000 O   0  0  0  0  0  0  0  0  0  0  0  0
    3.9693    0.1825    0.0000 C   0  0  0  0  0  0  0  0  0  0  0  0
    4.7290   -1.1109    0.0000 O   0  0  0  0  0  0  0  0  0  0  0  0
    4.7096    1.4871    0.0000 O   0  0  0  0  0  0  0  0  0  0  0  0
   -3.5499    2.7244    0.0000 C   0  0  0  0  0  0  0  0  0  0  0  0
  1  2  2  0
  1  3  2  0
  1  4  1  0
  4  5  1  0
  5  6  2  0
  6  7  1  0
  7  8  2  0
  8  9  1  0
  9 10  2  0
 10 11  1  0
 11 12  2  0
 12 13  1  0
  8 14  1  0
 14 15  1  0
 14 16  2  0
  1 17  1  0
 10  5  1  0
M  END
>  <IC50>  (180) 
1659.83

>  <cmpdNO>  (180) 
188

$$$$

     RDKit          2D

 19 20  0  0  0  0  0  0  0  0999 V2000
   -4.8637   -0.7094    0.0000 O   0  0  0  0  0  0  0  0  0  0  0  0
   -3.7365   -1.6991    0.0000 C   0  0  0  0  0  0  0  0  0  0  0  0
   -4.0300   -3.1701    0.0000 O   0  0  0  0  0  0  0  0  0  0  0  0
   -2.3158   -1.2177    0.0000 C   0  0  0  0  0  0  0  0  0  0  0  0
   -2.0223    0.2533    0.0000 C   0  0  0  0  0  0  0  0  0  0  0  0
   -0.6017    0.7346    0.0000 C   0  0  0  0  0  0  0  0  0  0  0  0
   -0.3082    2.2056    0.0000 N   0  0  0  0  0  0  0  0  0  0  0  0
   -1.4353    3.1953    0.0000 C   0  0  0  0  0  0  0  0  0  0  0  0
   -1.1419    4.6663    0.0000 N   0  0  0  0  0  0  0  0  0  0  0  0
   -2.8560    2.7139    0.0000 N   0  0  0  0  0  0  0  0  0  0  0  0
    0.5255   -0.2551    0.0000 C   0  0  0  0  0  0  0  0  0  0  0  0
    1.9462    0.2263    0.0000 N   0  0  0  0  0  0  0  0  0  0  0  0
    3.0734   -0.7634    0.0000 C   0  0  0  0  0  0  0  0  0  0  0  0
    2.7799   -2.2344    0.0000 O   0  0  0  0  0  0  0  0  0  0  0  0
    4.4941   -0.2821    0.0000 C   0  0  0  0  0  0  0  0  0  0  0  0
    5.4837    0.8451    0.0000 C   0  0  0  0  0  0  0  0  0  0  0  0
    5.9651   -0.5756    0.0000 C   0  0  0  0  0  0  0  0  0  0  0  0
    0.2320   -1.7261    0.0000 C   0  0  0  0  0  0  0  0  0  0  0  0
   -1.1886   -2.2074    0.0000 C   0  0  0  0  0  0  0  0  0  0  0  0
  1  2  1  0
  2  3  2  0
  2  4  1  0
  4  5  2  0
  5  6  1  0
  6  7  1  0
  7  8  2  0
  8  9  1  0
  8 10  1  0
  6 11  2  0
 11 12  1  0
 12 13  1  0
 13 14  2  0
 13 15  1  0
 15 16  1  0
 16 17  1  0
 11 18  1  0
 18 19  2  0
 19  4  1  0
 17 15  1  0
M  END
>  <IC50>  (181) 
812.83

>  <cmpdNO>  (181) 
189

$$$$

     RDKit          2D

 18 18  0  0  0  0  0  0  0  0999 V2000
   -3.5838    0.4206    0.0000 S   0  0  0  0  0  0  0  0  0  0  0  0
   -2.6875    1.6234    0.0000 O   0  0  0  0  0  0  0  0  0  0  0  0
   -4.4801   -0.7822    0.0000 O   0  0  0  0  0  0  0  0  0  0  0  0
   -2.3811   -0.4757    0.0000 C   0  0  0  0  0  0  0  0  0  0  0  0
   -1.0035    0.1178    0.0000 C   0  0  0  0  0  0  0  0  0  0  0  0
   -0.8286    1.6075    0.0000 C   0  0  0  0  0  0  0  0  0  0  0  0
    0.5490    2.2010    0.0000 C   0  0  0  0  0  0  0  0  0  0  0  0
    1.7517    1.3047    0.0000 C   0  0  0  0  0  0  0  0  0  0  0  0
    1.5769   -0.1851    0.0000 C   0  0  0  0  0  0  0  0  0  0  0  0
    0.1993   -0.7785    0.0000 C   0  0  0  0  0  0  0  0  0  0  0  0
    0.0245   -2.2683    0.0000 N   0  0  0  0  0  0  0  0  0  0  0  0
    1.2272   -3.1646    0.0000 C   0  0  0  0  0  0  0  0  0  0  0  0
    1.0524   -4.6544    0.0000 N   0  0  0  0  0  0  0  0  0  0  0  0
    2.6048   -2.5711    0.0000 N   0  0  0  0  0  0  0  0  0  0  0  0
    3.1293    1.8982    0.0000 C   0  0  0  0  0  0  0  0  0  0  0  0
    4.3321    1.0019    0.0000 O   0  0  0  0  0  0  0  0  0  0  0  0
    3.3042    3.3880    0.0000 O   0  0  0  0  0  0  0  0  0  0  0  0
   -4.7866    1.3169    0.0000 C   0  0  0  0  0  0  0  0  0  0  0  0
  1  2  2  0
  1  3  2  0
  1  4  1  0
  4  5  1  0
  5  6  2  0
  6  7  1  0
  7  8  2  0
  8  9  1  0
  9 10  2  0
 10 11  1  0
 11 12  2  0
 12 13  1  0
 12 14  1  0
  8 15  1  0
 15 16  1  0
 15 17  2  0
  1 18  1  0
 10  5  1  0
M  END
>  <IC50>  (182) 
107.15

>  <cmpdNO>  (182) 
190

$$$$

     RDKit          2D

 19 19  0  0  0  0  0  0  0  0999 V2000
    1.5648   -0.1602    0.0000 O   0  0  0  0  0  0  0  0  0  0  0  0
    0.1812   -0.7395    0.0000 C   0  0  0  0  0  0  0  0  0  0  0  0
   -0.0089   -2.2274    0.0000 C   0  0  0  0  0  0  0  0  0  0  0  0
   -1.3925   -2.8067    0.0000 O   0  0  0  0  0  0  0  0  0  0  0  0
    1.1846   -3.1360    0.0000 N   0  0  0  0  0  0  0  0  0  0  0  0
    0.9945   -4.6239    0.0000 C   0  0  0  0  0  0  0  0  0  0  0  0
    2.5682   -2.5567    0.0000 C   0  0  0  0  0  0  0  0  0  0  0  0
   -1.0123    0.1691    0.0000 C   0  0  0  0  0  0  0  0  0  0  0  0
   -2.3959   -0.4101    0.0000 N   0  0  0  0  0  0  0  0  0  0  0  0
   -3.5894    0.4985    0.0000 C   0  0  0  0  0  0  0  0  0  0  0  0
   -3.3993    1.9864    0.0000 O   0  0  0  0  0  0  0  0  0  0  0  0
   -4.9730   -0.0808    0.0000 C   0  0  0  0  0  0  0  0  0  0  0  0
   -0.8222    1.6570    0.0000 C   0  0  0  0  0  0  0  0  0  0  0  0
   -2.0156    2.5657    0.0000 N   0  0  0  0  0  0  0  0  0  0  0  0
    0.5615    2.2363    0.0000 C   0  0  0  0  0  0  0  0  0  0  0  0
    1.7550    1.3277    0.0000 C   0  0  0  0  0  0  0  0  0  0  0  0
    3.1386    1.9070    0.0000 C   0  0  0  0  0  0  0  0  0  0  0  0
    4.3321    0.9984    0.0000 O   0  0  0  0  0  0  0  0  0  0  0  0
    3.3287    3.3949    0.0000 O   0  0  0  0  0  0  0  0  0  0  0  0
  1  2  1  0
  2  3  1  0
  3  4  2  0
  3  5  1  0
  5  6  1  0
  5  7  1  0
  2  8  1  0
  8  9  1  0
  9 10  1  0
 10 11  2  0
 10 12  1  0
  8 13  1  0
 13 14  1  0
 13 15  1  0
 15 16  2  0
 16 17  1  0
 17 18  1  0
 17 19  2  0
 16  1  1  0
M  END
>  <IC50>  (183) 
1.29

>  <cmpdNO>  (183) 
191

$$$$

     RDKit          2D

 20 20  0  0  0  0  0  0  0  0999 V2000
   -1.0567   -1.0076    0.0000 O   0  0  0  0  0  0  0  0  0  0  0  0
   -0.3474    0.3141    0.0000 C   0  0  0  0  0  0  0  0  0  0  0  0
   -1.1375    1.5892    0.0000 C   0  0  0  0  0  0  0  0  0  0  0  0
   -0.4283    2.9109    0.0000 O   0  0  0  0  0  0  0  0  0  0  0  0
   -2.6368    1.5425    0.0000 C   0  0  0  0  0  0  0  0  0  0  0  0
   -3.3460    0.2208    0.0000 O   0  0  0  0  0  0  0  0  0  0  0  0
   -3.4268    2.8176    0.0000 C   0  0  0  0  0  0  0  0  0  0  0  0
   -4.9261    2.7709    0.0000 O   0  0  0  0  0  0  0  0  0  0  0  0
    1.1518    0.3608    0.0000 C   0  0  0  0  0  0  0  0  0  0  0  0
    1.8611    1.6825    0.0000 N   0  0  0  0  0  0  0  0  0  0  0  0
    3.3603    1.7292    0.0000 C   0  0  0  0  0  0  0  0  0  0  0  0
    4.1504    0.4541    0.0000 O   0  0  0  0  0  0  0  0  0  0  0  0
    4.0696    3.0509    0.0000 C   0  0  0  0  0  0  0  0  0  0  0  0
    1.9419   -0.9143    0.0000 C   0  0  0  0  0  0  0  0  0  0  0  0
    3.4412   -0.8677    0.0000 O   0  0  0  0  0  0  0  0  0  0  0  0
    1.2327   -2.2361    0.0000 C   0  0  0  0  0  0  0  0  0  0  0  0
   -0.2666   -2.2827    0.0000 C   0  0  0  0  0  0  0  0  0  0  0  0
   -0.9758   -3.6045    0.0000 C   0  0  0  0  0  0  0  0  0  0  0  0
   -2.4751   -3.6511    0.0000 O   0  0  0  0  0  0  0  0  0  0  0  0
   -0.1858   -4.8795    0.0000 O   0  0  0  0  0  0  0  0  0  0  0  0
  1  2  1  0
  2  3  1  0
  3  4  1  0
  3  5  1  0
  5  6  1  0
  5  7  1  0
  7  8  1  0
  2  9  1  0
  9 10  1  0
 10 11  1  0
 11 12  2  0
 11 13  1  0
  9 14  1  0
 14 15  1  0
 14 16  1  0
 16 17  2  0
 17 18  1  0
 18 19  1  0
 18 20  2  0
 17  1  1  0
M  END
>  <IC50>  (184) 
9.12

>  <cmpdNO>  (184) 
192

$$$$

     RDKit          2D

 21 21  0  0  0  0  0  0  0  0999 V2000
   -4.9688    0.8586    0.0000 O   0  0  0  0  0  0  0  0  0  0  0  0
   -3.8922   -0.1858    0.0000 C   0  0  0  0  0  0  0  0  0  0  0  0
   -4.2583   -1.6404    0.0000 O   0  0  0  0  0  0  0  0  0  0  0  0
   -2.4493    0.2244    0.0000 C   0  0  0  0  0  0  0  0  0  0  0  0
   -1.2694   -0.7017    0.0000 C   0  0  0  0  0  0  0  0  0  0  0  0
   -0.0240    0.1343    0.0000 N   0  0  0  0  0  0  0  0  0  0  0  0
    1.3844   -0.3819    0.0000 C   0  0  0  0  0  0  0  0  0  0  0  0
    2.5357    0.5797    0.0000 O   0  0  0  0  0  0  0  0  0  0  0  0
    1.6416   -1.8597    0.0000 N   0  0  0  0  0  0  0  0  0  0  0  0
    0.4904   -2.8213    0.0000 C   0  0  0  0  0  0  0  0  0  0  0  0
    0.7475   -4.2991    0.0000 C   0  0  0  0  0  0  0  0  0  0  0  0
   -0.9180   -2.3051    0.0000 C   0  0  0  0  0  0  0  0  0  0  0  0
    3.0500   -2.3759    0.0000 C   0  0  0  0  0  0  0  0  0  0  0  0
    3.3071   -3.8537    0.0000 C   0  0  0  0  0  0  0  0  0  0  0  0
   -0.4342    1.5771    0.0000 C   0  0  0  0  0  0  0  0  0  0  0  0
    0.4920    2.7570    0.0000 C   0  0  0  0  0  0  0  0  0  0  0  0
    1.9769    2.5449    0.0000 N   0  0  0  0  0  0  0  0  0  0  0  0
    2.9030    3.7249    0.0000 C   0  0  0  0  0  0  0  0  0  0  0  0
    4.3880    3.5128    0.0000 O   0  0  0  0  0  0  0  0  0  0  0  0
   -1.9331    1.6328    0.0000 C   0  0  0  0  0  0  0  0  0  0  0  0
   -2.7691    2.8782    0.0000 N   0  0  0  0  0  0  0  0  0  0  0  0
  1  2  1  0
  2  3  2  0
  2  4  1  0
  4  5  1  0
  5  6  1  0
  6  7  1  0
  7  8  2  0
  7  9  1  0
  9 10  1  0
 10 11  1  0
 10 12  1  0
  9 13  1  0
 13 14  1  0
  6 15  1  0
 15 16  1  0
 16 17  1  0
 17 18  1  0
 18 19  2  0
 15 20  1  0
 20 21  1  0
 20  4  1  0
M  END
>  <IC50>  (185) 
16.21

>  <cmpdNO>  (185) 
194

$$$$

     RDKit          2D

 23 23  0  0  0  0  0  0  0  0999 V2000
    3.8701   -3.6494    0.0000 O   0  0  0  0  0  0  0  0  0  0  0  0
    3.6818   -2.1613    0.0000 C   0  0  0  0  0  0  0  0  0  0  0  0
    4.8764   -1.2542    0.0000 O   0  0  0  0  0  0  0  0  0  0  0  0
    2.2989   -1.5803    0.0000 C   0  0  0  0  0  0  0  0  0  0  0  0
    1.9560   -0.1200    0.0000 C   0  0  0  0  0  0  0  0  0  0  0  0
    0.4613    0.0052    0.0000 N   0  0  0  0  0  0  0  0  0  0  0  0
   -0.3160    1.2881    0.0000 C   0  0  0  0  0  0  0  0  0  0  0  0
   -1.8157    1.2564    0.0000 O   0  0  0  0  0  0  0  0  0  0  0  0
    0.4063    2.6027    0.0000 N   0  0  0  0  0  0  0  0  0  0  0  0
    1.9060    2.6344    0.0000 C   0  0  0  0  0  0  0  0  0  0  0  0
    2.6284    3.9490    0.0000 C   0  0  0  0  0  0  0  0  0  0  0  0
    2.6833    1.3515    0.0000 C   0  0  0  0  0  0  0  0  0  0  0  0
   -0.3710    3.8856    0.0000 C   0  0  0  0  0  0  0  0  0  0  0  0
    0.3514    5.2002    0.0000 C   0  0  0  0  0  0  0  0  0  0  0  0
   -0.1197   -1.3777    0.0000 C   0  0  0  0  0  0  0  0  0  0  0  0
   -1.5800   -1.7205    0.0000 C   0  0  0  0  0  0  0  0  0  0  0  0
   -2.6071   -0.6273    0.0000 N   0  0  0  0  0  0  0  0  0  0  0  0
   -4.0674   -0.9701    0.0000 C   0  0  0  0  0  0  0  0  0  0  0  0
   -4.5006   -2.4061    0.0000 O   0  0  0  0  0  0  0  0  0  0  0  0
   -5.0944    0.1232    0.0000 C   0  0  0  0  0  0  0  0  0  0  0  0
   -6.5547   -0.2197    0.0000 C   0  0  0  0  0  0  0  0  0  0  0  0
    1.0160   -2.3576    0.0000 C   0  0  0  0  0  0  0  0  0  0  0  0
    0.8907   -3.8524    0.0000 N   0  0  0  0  0  0  0  0  0  0  0  0
  1  2  1  0
  2  3  2  0
  2  4  1  0
  4  5  1  0
  5  6  1  0
  6  7  1  0
  7  8  2  0
  7  9  1  0
  9 10  1  0
 10 11  1  0
 10 12  1  0
  9 13  1  0
 13 14  1  0
  6 15  1  0
 15 16  1  0
 16 17  1  0
 17 18  1  0
 18 19  2  0
 18 20  1  0
 20 21  2  0
 15 22  1  0
 22 23  1  0
 22  4  1  0
M  END
>  <IC50>  (186) 
173.78

>  <cmpdNO>  (186) 
195

$$$$

     RDKit          2D

 17 17  0  0  0  0  0  0  0  0999 V2000
   -4.1615   -0.8488    0.0000 O   0  0  0  0  0  0  0  0  0  0  0  0
   -2.9984   -1.7959    0.0000 C   0  0  0  0  0  0  0  0  0  0  0  0
   -3.2370   -3.2768    0.0000 O   0  0  0  0  0  0  0  0  0  0  0  0
   -1.5965   -1.2621    0.0000 C   0  0  0  0  0  0  0  0  0  0  0  0
   -1.3579    0.2188    0.0000 C   0  0  0  0  0  0  0  0  0  0  0  0
    0.0439    0.7526    0.0000 C   0  0  0  0  0  0  0  0  0  0  0  0
    0.2825    2.2335    0.0000 N   0  0  0  0  0  0  0  0  0  0  0  0
   -0.8807    3.1806    0.0000 C   0  0  0  0  0  0  0  0  0  0  0  0
   -0.6421    4.6615    0.0000 N   0  0  0  0  0  0  0  0  0  0  0  0
   -2.2825    2.6468    0.0000 N   0  0  0  0  0  0  0  0  0  0  0  0
    1.2071   -0.1945    0.0000 C   0  0  0  0  0  0  0  0  0  0  0  0
    2.6089    0.3393    0.0000 N   0  0  0  0  0  0  0  0  0  0  0  0
    3.7720   -0.6078    0.0000 C   0  0  0  0  0  0  0  0  0  0  0  0
    3.5334   -2.0887    0.0000 O   0  0  0  0  0  0  0  0  0  0  0  0
    5.1739   -0.0740    0.0000 C   0  0  0  0  0  0  0  0  0  0  0  0
    0.9684   -1.6754    0.0000 C   0  0  0  0  0  0  0  0  0  0  0  0
   -0.4334   -2.2092    0.0000 C   0  0  0  0  0  0  0  0  0  0  0  0
  1  2  1  0
  2  3  2  0
  2  4  1  0
  4  5  2  0
  5  6  1  0
  6  7  1  0
  7  8  2  0
  8  9  1  0
  8 10  1  0
  6 11  2  0
 11 12  1  0
 12 13  1  0
 13 14  2  0
 13 15  1  0
 11 16  1  0
 16 17  2  0
 17  4  1  0
M  END
>  <IC50>  (187) 
1.698

>  <cmpdNO>  (187) 
196

$$$$

     RDKit          2D

 16 16  0  0  0  0  0  0  0  0999 V2000
    4.4181   -1.4973    0.0000 O   0  0  0  0  0  0  0  0  0  0  0  0
    3.8732   -0.0997    0.0000 C   0  0  0  0  0  0  0  0  0  0  0  0
    4.8110    1.0709    0.0000 O   0  0  0  0  0  0  0  0  0  0  0  0
    2.3905    0.1271    0.0000 C   0  0  0  0  0  0  0  0  0  0  0  0
    1.4526   -1.0436    0.0000 C   0  0  0  0  0  0  0  0  0  0  0  0
   -0.0301   -0.8167    0.0000 C   0  0  0  0  0  0  0  0  0  0  0  0
   -0.9679   -1.9874    0.0000 N   0  0  0  0  0  0  0  0  0  0  0  0
   -2.4507   -1.7606    0.0000 C   0  0  0  0  0  0  0  0  0  0  0  0
   -3.3885   -2.9313    0.0000 N   0  0  0  0  0  0  0  0  0  0  0  0
   -2.9956   -0.3631    0.0000 N   0  0  0  0  0  0  0  0  0  0  0  0
   -0.5750    0.5808    0.0000 C   0  0  0  0  0  0  0  0  0  0  0  0
   -2.0578    0.8076    0.0000 N   0  0  0  0  0  0  0  0  0  0  0  0
   -2.6027    2.2051    0.0000 N   0  0  0  0  0  0  0  0  0  0  0  0
   -4.0855    2.4320    0.0000 C   0  0  0  0  0  0  0  0  0  0  0  0
    0.3628    1.7515    0.0000 C   0  0  0  0  0  0  0  0  0  0  0  0
    1.8455    1.5246    0.0000 C   0  0  0  0  0  0  0  0  0  0  0  0
  1  2  1  0
  2  3  2  0
  2  4  1  0
  4  5  2  0
  5  6  1  0
  6  7  1  0
  7  8  2  0
  8  9  1  0
  8 10  1  0
  6 11  2  0
 11 12  1  0
 12 13  1  0
 13 14  1  0
 11 15  1  0
 15 16  2  0
 16  4  1  0
M  END
>  <IC50>  (188) 
3.467

>  <cmpdNO>  (188) 
197

$$$$

     RDKit          2D

 17 17  0  0  0  0  0  0  0  0999 V2000
    2.4197   -1.4116    0.0000 S   0  0  0  0  0  0  0  0  0  0  0  0
    2.1296   -2.8833    0.0000 O   0  0  0  0  0  0  0  0  0  0  0  0
    2.7098    0.0600    0.0000 O   0  0  0  0  0  0  0  0  0  0  0  0
    3.8914   -1.7018    0.0000 N   0  0  0  0  0  0  0  0  0  0  0  0
    0.9480   -1.1215    0.0000 C   0  0  0  0  0  0  0  0  0  0  0  0
   -0.0391   -2.2510    0.0000 C   0  0  0  0  0  0  0  0  0  0  0  0
   -1.5107   -1.9608    0.0000 C   0  0  0  0  0  0  0  0  0  0  0  0
   -1.9953   -0.5413    0.0000 C   0  0  0  0  0  0  0  0  0  0  0  0
   -1.0082    0.5882    0.0000 C   0  0  0  0  0  0  0  0  0  0  0  0
    0.4635    0.2981    0.0000 C   0  0  0  0  0  0  0  0  0  0  0  0
    1.4506    1.4275    0.0000 N   0  0  0  0  0  0  0  0  0  0  0  0
    0.9660    2.8471    0.0000 C   0  0  0  0  0  0  0  0  0  0  0  0
   -0.5057    3.1372    0.0000 N   0  0  0  0  0  0  0  0  0  0  0  0
    1.9531    3.9765    0.0000 N   0  0  0  0  0  0  0  0  0  0  0  0
   -3.4670   -0.2511    0.0000 C   0  0  0  0  0  0  0  0  0  0  0  0
   -3.9516    1.1684    0.0000 O   0  0  0  0  0  0  0  0  0  0  0  0
   -4.4541   -1.3806    0.0000 O   0  0  0  0  0  0  0  0  0  0  0  0
  1  2  2  0
  1  3  2  0
  1  4  1  0
  1  5  1  0
  5  6  2  0
  6  7  1  0
  7  8  2  0
  8  9  1  0
  9 10  2  0
 10 11  1  0
 11 12  2  0
 12 13  1  0
 12 14  1  0
  8 15  1  0
 15 16  1  0
 15 17  2  0
 10  5  1  0
M  END
>  <IC50>  (189) 
6.46

>  <cmpdNO>  (189) 
198

$$$$

     RDKit          2D

 18 18  0  0  0  0  0  0  0  0999 V2000
   -3.5838    0.4206    0.0000 S   0  0  0  0  0  0  0  0  0  0  0  0
   -2.6875    1.6234    0.0000 O   0  0  0  0  0  0  0  0  0  0  0  0
   -4.4801   -0.7822    0.0000 O   0  0  0  0  0  0  0  0  0  0  0  0
   -2.3811   -0.4757    0.0000 C   0  0  0  0  0  0  0  0  0  0  0  0
   -1.0035    0.1178    0.0000 C   0  0  0  0  0  0  0  0  0  0  0  0
   -0.8286    1.6075    0.0000 C   0  0  0  0  0  0  0  0  0  0  0  0
    0.5490    2.2010    0.0000 C   0  0  0  0  0  0  0  0  0  0  0  0
    1.7517    1.3047    0.0000 C   0  0  0  0  0  0  0  0  0  0  0  0
    1.5769   -0.1851    0.0000 C   0  0  0  0  0  0  0  0  0  0  0  0
    0.1993   -0.7785    0.0000 C   0  0  0  0  0  0  0  0  0  0  0  0
    0.0245   -2.2683    0.0000 N   0  0  0  0  0  0  0  0  0  0  0  0
    1.2272   -3.1646    0.0000 C   0  0  0  0  0  0  0  0  0  0  0  0
    1.0524   -4.6544    0.0000 N   0  0  0  0  0  0  0  0  0  0  0  0
    2.6048   -2.5711    0.0000 N   0  0  0  0  0  0  0  0  0  0  0  0
    3.1293    1.8982    0.0000 C   0  0  0  0  0  0  0  0  0  0  0  0
    4.3321    1.0019    0.0000 O   0  0  0  0  0  0  0  0  0  0  0  0
    3.3042    3.3880    0.0000 O   0  0  0  0  0  0  0  0  0  0  0  0
   -4.7866    1.3169    0.0000 C   0  0  0  0  0  0  0  0  0  0  0  0
  1  2  2  0
  1  3  2  0
  1  4  1  0
  4  5  1  0
  5  6  2  0
  6  7  1  0
  7  8  2  0
  8  9  1  0
  9 10  2  0
 10 11  1  0
 11 12  1  0
 12 13  1  0
 12 14  1  0
  8 15  1  0
 15 16  1  0
 15 17  2  0
  1 18  1  0
 10  5  1  0
M  END
>  <IC50>  (190) 
234.42

>  <cmpdNO>  (190) 
199

$$$$

     RDKit          2D

 23 23  0  0  0  0  0  0  0  0999 V2000
    2.5050   -4.4538    0.0000 O   0  0  0  0  0  0  0  0  0  0  0  0
    2.9328   -3.0161    0.0000 C   0  0  0  0  0  0  0  0  0  0  0  0
    4.3918   -2.6677    0.0000 O   0  0  0  0  0  0  0  0  0  0  0  0
    1.9016   -1.9267    0.0000 C   0  0  0  0  0  0  0  0  0  0  0  0
    0.4426   -2.2751    0.0000 C   0  0  0  0  0  0  0  0  0  0  0  0
   -0.5885   -1.1857    0.0000 C   0  0  0  0  0  0  0  0  0  0  0  0
   -2.0475   -1.5341    0.0000 C   0  0  0  0  0  0  0  0  0  0  0  0
   -2.4753   -2.9718    0.0000 O   0  0  0  0  0  0  0  0  0  0  0  0
   -3.0787   -0.4448    0.0000 N   0  0  0  0  0  0  0  0  0  0  0  0
   -4.5377   -0.7931    0.0000 C   0  0  0  0  0  0  0  0  0  0  0  0
   -5.5689    0.2962    0.0000 C   0  0  0  0  0  0  0  0  0  0  0  0
   -7.0279   -0.0522    0.0000 N   0  0  0  0  0  0  0  0  0  0  0  0
   -0.1607    0.2520    0.0000 C   0  0  0  0  0  0  0  0  0  0  0  0
   -1.1919    1.3413    0.0000 N   0  0  0  0  0  0  0  0  0  0  0  0
   -0.7641    2.7790    0.0000 C   0  0  0  0  0  0  0  0  0  0  0  0
    0.6949    3.1274    0.0000 O   0  0  0  0  0  0  0  0  0  0  0  0
   -1.7953    3.8683    0.0000 C   0  0  0  0  0  0  0  0  0  0  0  0
    1.2983    0.6003    0.0000 C   0  0  0  0  0  0  0  0  0  0  0  0
    1.7261    2.0380    0.0000 N   0  0  0  0  0  0  0  0  0  0  0  0
    3.1850    2.3864    0.0000 C   0  0  0  0  0  0  0  0  0  0  0  0
    3.6128    3.8241    0.0000 N   0  0  0  0  0  0  0  0  0  0  0  0
    4.2162    1.2970    0.0000 N   0  0  0  0  0  0  0  0  0  0  0  0
    2.3294   -0.4890    0.0000 C   0  0  0  0  0  0  0  0  0  0  0  0
  1  2  1  0
  2  3  2  0
  2  4  1  0
  4  5  1  0
  5  6  1  0
  6  7  1  0
  7  8  2  0
  7  9  1  0
  9 10  1  0
 10 11  1  0
 11 12  1  0
  6 13  1  0
 13 14  1  0
 14 15  1  0
 15 16  2  0
 15 17  1  0
 13 18  1  0
 18 19  1  0
 19 20  1  0
 20 21  1  0
 20 22  2  0
 18 23  1  0
  4 23  2  0
M  END
>  <IC50>  (191) 
11.75

>  <cmpdNO>  (191) 
200

$$$$

     RDKit          2D

 19 19  0  0  0  0  0  0  0  0999 V2000
    1.1130    0.8099    0.0000 O   0  0  0  0  0  0  0  0  0  0  0  0
    0.3507   -0.4820    0.0000 C   0  0  0  0  0  0  0  0  0  0  0  0
    1.0883   -1.7881    0.0000 C   0  0  0  0  0  0  0  0  0  0  0  0
    2.5882   -1.8023    0.0000 C   0  0  0  0  0  0  0  0  0  0  0  0
    3.3506   -0.5105    0.0000 O   0  0  0  0  0  0  0  0  0  0  0  0
    3.3258   -3.1085    0.0000 C   0  0  0  0  0  0  0  0  0  0  0  0
    4.8258   -3.1227    0.0000 O   0  0  0  0  0  0  0  0  0  0  0  0
   -1.1492   -0.4677    0.0000 C   0  0  0  0  0  0  0  0  0  0  0  0
   -1.9116   -1.7595    0.0000 N   0  0  0  0  0  0  0  0  0  0  0  0
   -3.4115   -1.7452    0.0000 C   0  0  0  0  0  0  0  0  0  0  0  0
   -4.1491   -0.4391    0.0000 O   0  0  0  0  0  0  0  0  0  0  0  0
   -4.1738   -3.0371    0.0000 C   0  0  0  0  0  0  0  0  0  0  0  0
   -1.8868    0.8384    0.0000 C   0  0  0  0  0  0  0  0  0  0  0  0
   -3.3868    0.8527    0.0000 O   0  0  0  0  0  0  0  0  0  0  0  0
   -1.1245    2.1303    0.0000 C   0  0  0  0  0  0  0  0  0  0  0  0
    0.3754    2.1160    0.0000 C   0  0  0  0  0  0  0  0  0  0  0  0
    1.1377    3.4078    0.0000 C   0  0  0  0  0  0  0  0  0  0  0  0
    2.6377    3.3936    0.0000 O   0  0  0  0  0  0  0  0  0  0  0  0
    0.4001    4.7140    0.0000 O   0  0  0  0  0  0  0  0  0  0  0  0
  1  2  1  0
  2  3  1  0
  3  4  1  0
  4  5  1  0
  4  6  1  0
  6  7  1  0
  2  8  1  0
  8  9  1  0
  9 10  1  0
 10 11  2  0
 10 12  1  0
  8 13  1  0
 13 14  1  0
 13 15  1  0
 15 16  2  0
 16 17  1  0
 17 18  1  0
 17 19  2  0
 16  1  1  0
M  END
>  <IC50>  (192) 
10

>  <cmpdNO>  (192) 
201

$$$$

     RDKit          2D

 21 21  0  0  0  0  0  0  0  0999 V2000
   -1.3560    0.1035    0.0000 O   0  0  0  0  0  0  0  0  0  0  0  0
   -0.1117    0.9412    0.0000 C   0  0  0  0  0  0  0  0  0  0  0  0
    1.2974    0.4269    0.0000 C   0  0  0  0  0  0  0  0  0  0  0  0
    2.4473    1.3901    0.0000 N   0  0  0  0  0  0  0  0  0  0  0  0
    3.8564    0.8759    0.0000 C   0  0  0  0  0  0  0  0  0  0  0  0
    4.1156   -0.6016    0.0000 O   0  0  0  0  0  0  0  0  0  0  0  0
    5.0063    1.8390    0.0000 C   0  0  0  0  0  0  0  0  0  0  0  0
    1.5566   -1.0505    0.0000 C   0  0  0  0  0  0  0  0  0  0  0  0
    2.9657   -1.5648    0.0000 O   0  0  0  0  0  0  0  0  0  0  0  0
    0.4067   -2.0137    0.0000 C   0  0  0  0  0  0  0  0  0  0  0  0
   -1.0024   -1.4994    0.0000 O   0  0  0  0  0  0  0  0  0  0  0  0
    0.6658   -3.4911    0.0000 C   0  0  0  0  0  0  0  0  0  0  0  0
   -0.4841   -4.4543    0.0000 O   0  0  0  0  0  0  0  0  0  0  0  0
   -0.5239    2.3835    0.0000 C   0  0  0  0  0  0  0  0  0  0  0  0
    0.4007    3.5647    0.0000 O   0  0  0  0  0  0  0  0  0  0  0  0
   -2.0229    2.4371    0.0000 C   0  0  0  0  0  0  0  0  0  0  0  0
   -2.5372    1.0280    0.0000 C   0  0  0  0  0  0  0  0  0  0  0  0
   -3.8848    1.6868    0.0000 O   0  0  0  0  0  0  0  0  0  0  0  0
   -3.3332   -0.2433    0.0000 C   0  0  0  0  0  0  0  0  0  0  0  0
   -4.8322   -0.1897    0.0000 O   0  0  0  0  0  0  0  0  0  0  0  0
   -2.6301   -1.5684    0.0000 O   0  0  0  0  0  0  0  0  0  0  0  0
  1  2  1  0
  2  3  1  0
  3  4  1  0
  4  5  1  0
  5  6  2  0
  5  7  1  0
  3  8  1  0
  8  9  1  0
  8 10  1  0
 10 11  1  0
 10 12  1  0
 12 13  1  0
  2 14  1  0
 14 15  1  0
 14 16  1  0
 16 17  1  0
 17 18  1  0
 17 19  1  0
 19 20  1  0
 19 21  2  0
 17  1  1  0
M  END
>  <IC50>  (193) 
39.8

>  <cmpdNO>  (193) 
203

$$$$

     RDKit          2D

 18 18  0  0  0  0  0  0  0  0999 V2000
   -3.6436   -3.2117    0.0000 O   0  0  0  0  0  0  0  0  0  0  0  0
   -2.1544   -3.0318    0.0000 C   0  0  0  0  0  0  0  0  0  0  0  0
   -1.2540   -4.2314    0.0000 O   0  0  0  0  0  0  0  0  0  0  0  0
   -1.5657   -1.6521    0.0000 C   0  0  0  0  0  0  0  0  0  0  0  0
   -0.1035   -1.3175    0.0000 C   0  0  0  0  0  0  0  0  0  0  0  0
    0.0301    0.1765    0.0000 C   0  0  0  0  0  0  0  0  0  0  0  0
    1.3173    0.9466    0.0000 C   0  0  0  0  0  0  0  0  0  0  0  0
    2.6279    0.2169    0.0000 C   0  0  0  0  0  0  0  0  0  0  0  0
    3.9151    0.9870    0.0000 N   0  0  0  0  0  0  0  0  0  0  0  0
    5.2256    0.2573    0.0000 C   0  0  0  0  0  0  0  0  0  0  0  0
    5.2489   -1.2426    0.0000 O   0  0  0  0  0  0  0  0  0  0  0  0
    6.5128    1.0273    0.0000 C   0  0  0  0  0  0  0  0  0  0  0  0
   -1.3495    0.7653    0.0000 C   0  0  0  0  0  0  0  0  0  0  0  0
   -1.6842    2.2275    0.0000 N   0  0  0  0  0  0  0  0  0  0  0  0
   -3.1178    2.6688    0.0000 C   0  0  0  0  0  0  0  0  0  0  0  0
   -3.4524    4.1310    0.0000 N   0  0  0  0  0  0  0  0  0  0  0  0
   -4.2168    1.6479    0.0000 N   0  0  0  0  0  0  0  0  0  0  0  0
   -2.3358   -0.3649    0.0000 C   0  0  0  0  0  0  0  0  0  0  0  0
  1  2  1  0
  2  3  2  0
  2  4  1  0
  4  5  1  0
  5  6  1  0
  6  7  1  0
  7  8  1  0
  8  9  1  0
  9 10  1  0
 10 11  2  0
 10 12  1  0
  6 13  1  0
 13 14  1  0
 14 15  1  0
 15 16  1  0
 15 17  2  0
 13 18  1  0
 18  4  1  0
M  END
>  <IC50>  (194) 
27.54

>  <cmpdNO>  (194) 
204

$$$$

     RDKit          2D

 17 17  0  0  0  0  0  0  0  0999 V2000
   -3.7764   -2.6864    0.0000 O   0  0  0  0  0  0  0  0  0  0  0  0
   -2.2807   -2.8000    0.0000 C   0  0  0  0  0  0  0  0  0  0  0  0
   -1.6313   -4.1521    0.0000 O   0  0  0  0  0  0  0  0  0  0  0  0
   -1.4345   -1.5615    0.0000 C   0  0  0  0  0  0  0  0  0  0  0  0
    0.0649   -1.5182    0.0000 C   0  0  0  0  0  0  0  0  0  0  0  0
    0.4870   -0.0788    0.0000 C   0  0  0  0  0  0  0  0  0  0  0  0
    1.8996    0.4258    0.0000 C   0  0  0  0  0  0  0  0  0  0  0  0
    3.0429   -0.5453    0.0000 N   0  0  0  0  0  0  0  0  0  0  0  0
    4.4555   -0.0407    0.0000 C   0  0  0  0  0  0  0  0  0  0  0  0
    4.7248    1.4349    0.0000 O   0  0  0  0  0  0  0  0  0  0  0  0
    5.5987   -1.0118    0.0000 C   0  0  0  0  0  0  0  0  0  0  0  0
   -0.7515    0.7674    0.0000 C   0  0  0  0  0  0  0  0  0  0  0  0
   -0.7948    2.2668    0.0000 N   0  0  0  0  0  0  0  0  0  0  0  0
   -2.1150    2.9790    0.0000 C   0  0  0  0  0  0  0  0  0  0  0  0
   -2.1584    4.4783    0.0000 N   0  0  0  0  0  0  0  0  0  0  0  0
   -3.3918    2.1917    0.0000 N   0  0  0  0  0  0  0  0  0  0  0  0
   -1.9390   -0.1489    0.0000 C   0  0  0  0  0  0  0  0  0  0  0  0
  1  2  1  0
  2  3  2  0
  4  2  1  1
  4  5  1  0
  5  6  1  0
  6  7  1  1
  7  8  1  0
  8  9  1  0
  9 10  2  0
  9 11  1  0
  6 12  1  0
 12 13  1  6
 13 14  1  0
 14 15  1  0
 14 16  2  0
 12 17  1  0
 17  4  1  0
M  END
>  <IC50>  (195) 
100000

>  <cmpdNO>  (195) 
206

$$$$

     RDKit          2D

 16 16  0  0  0  0  0  0  0  0999 V2000
    0.0396   -4.1619    0.0000 O   0  0  0  0  0  0  0  0  0  0  0  0
    0.9058   -2.9373    0.0000 C   0  0  0  0  0  0  0  0  0  0  0  0
    2.3995   -3.0751    0.0000 O   0  0  0  0  0  0  0  0  0  0  0  0
    0.2783   -1.5748    0.0000 C   0  0  0  0  0  0  0  0  0  0  0  0
   -1.2153   -1.4370    0.0000 C   0  0  0  0  0  0  0  0  0  0  0  0
   -1.8428   -0.0746    0.0000 C   0  0  0  0  0  0  0  0  0  0  0  0
   -0.9766    1.1501    0.0000 C   0  0  0  0  0  0  0  0  0  0  0  0
    0.5171    1.0122    0.0000 C   0  0  0  0  0  0  0  0  0  0  0  0
    1.3833    2.2369    0.0000 N   0  0  0  0  0  0  0  0  0  0  0  0
    2.8769    2.0990    0.0000 C   0  0  0  0  0  0  0  0  0  0  0  0
    3.7431    3.3237    0.0000 N   0  0  0  0  0  0  0  0  0  0  0  0
    3.5044    0.7366    0.0000 N   0  0  0  0  0  0  0  0  0  0  0  0
    1.1445   -0.3502    0.0000 C   0  0  0  0  0  0  0  0  0  0  0  0
   -3.3364    0.0633    0.0000 C   0  0  0  0  0  0  0  0  0  0  0  0
   -3.9639    1.4257    0.0000 N   0  0  0  0  0  0  0  0  0  0  0  0
   -5.4575    1.5636    0.0000 O   0  0  0  0  0  0  0  0  0  0  0  0
  1  2  1  0
  2  3  2  0
  2  4  1  0
  4  5  2  0
  5  6  1  0
  6  7  2  0
  7  8  1  0
  8  9  1  0
  9 10  1  0
 10 11  1  0
 10 12  2  0
  8 13  2  0
  6 14  1  0
 14 15  2  0
 15 16  1  0
 13  4  1  0
M  END
>  <IC50>  (196) 
500035010

>  <cmpdNO>  (196) 
207

$$$$

     RDKit          2D

 23 24  0  0  0  0  0  0  0  0999 V2000
   -6.7579   -0.8605    0.0000 O   0  0  0  0  0  0  0  0  0  0  0  0
   -5.4297   -1.5574    0.0000 C   0  0  0  0  0  0  0  0  0  0  0  0
   -5.3691   -3.0562    0.0000 O   0  0  0  0  0  0  0  0  0  0  0  0
   -4.1620   -0.7556    0.0000 C   0  0  0  0  0  0  0  0  0  0  0  0
   -2.7681   -1.3099    0.0000 C   0  0  0  0  0  0  0  0  0  0  0  0
   -1.8102   -0.1556    0.0000 N   0  0  0  0  0  0  0  0  0  0  0  0
   -2.6121    1.1121    0.0000 C   0  0  0  0  0  0  0  0  0  0  0  0
   -4.0655    0.7413    0.0000 C   0  0  0  0  0  0  0  0  0  0  0  0
   -5.2198    1.6992    0.0000 N   0  0  0  0  0  0  0  0  0  0  0  0
   -0.3133   -0.2520    0.0000 C   0  0  0  0  0  0  0  0  0  0  0  0
    0.3516   -1.5966    0.0000 O   0  0  0  0  0  0  0  0  0  0  0  0
    0.5186    0.9961    0.0000 N   0  0  0  0  0  0  0  0  0  0  0  0
   -0.1463    2.3407    0.0000 C   0  0  0  0  0  0  0  0  0  0  0  0
   -1.6432    2.4371    0.0000 C   0  0  0  0  0  0  0  0  0  0  0  0
    0.6857    3.5888    0.0000 C   0  0  0  0  0  0  0  0  0  0  0  0
    2.0155    0.8997    0.0000 C   0  0  0  0  0  0  0  0  0  0  0  0
    2.6804   -0.4449    0.0000 C   0  0  0  0  0  0  0  0  0  0  0  0
    4.1773   -0.5413    0.0000 C   0  0  0  0  0  0  0  0  0  0  0  0
    4.8423   -1.8859    0.0000 N   0  0  0  0  0  0  0  0  0  0  0  0
    6.3392   -1.9823    0.0000 C   0  0  0  0  0  0  0  0  0  0  0  0
    7.1711   -0.7342    0.0000 C   0  0  0  0  0  0  0  0  0  0  0  0
    6.5062    0.6104    0.0000 C   0  0  0  0  0  0  0  0  0  0  0  0
    5.0093    0.7068    0.0000 C   0  0  0  0  0  0  0  0  0  0  0  0
  1  2  1  0
  2  3  2  0
  4  2  1  6
  4  5  1  0
  5  6  1  0
  6  7  1  0
  7  8  1  0
  8  9  1  6
  6 10  1  0
 10 11  2  0
 10 12  1  0
 12 13  1  0
 13 14  1  0
 13 15  1  0
 12 16  1  0
 16 17  1  0
 17 18  1  0
 18 19  2  0
 19 20  1  0
 20 21  2  0
 21 22  1  0
 22 23  2  0
  8  4  1  0
 23 18  1  0
M  END
>  <IC50>  (197) 
1299870

>  <cmpdNO>  (197) 
208

$$$$

     RDKit          2D

 18 18  0  0  0  0  0  0  0  0999 V2000
   -3.5838    0.4206    0.0000 S   0  0  0  0  0  0  0  0  0  0  0  0
   -2.6875    1.6234    0.0000 O   0  0  0  0  0  0  0  0  0  0  0  0
   -4.4801   -0.7822    0.0000 O   0  0  0  0  0  0  0  0  0  0  0  0
   -2.3811   -0.4757    0.0000 C   0  0  0  0  0  0  0  0  0  0  0  0
   -1.0035    0.1178    0.0000 C   0  0  0  0  0  0  0  0  0  0  0  0
   -0.8286    1.6075    0.0000 C   0  0  0  0  0  0  0  0  0  0  0  0
    0.5490    2.2010    0.0000 C   0  0  0  0  0  0  0  0  0  0  0  0
    1.7517    1.3047    0.0000 C   0  0  0  0  0  0  0  0  0  0  0  0
    1.5769   -0.1851    0.0000 C   0  0  0  0  0  0  0  0  0  0  0  0
    0.1993   -0.7785    0.0000 C   0  0  0  0  0  0  0  0  0  0  0  0
    0.0245   -2.2683    0.0000 N   0  0  0  0  0  0  0  0  0  0  0  0
    1.2272   -3.1646    0.0000 C   0  0  0  0  0  0  0  0  0  0  0  0
    1.0524   -4.6544    0.0000 N   0  0  0  0  0  0  0  0  0  0  0  0
    2.6048   -2.5711    0.0000 N   0  0  0  0  0  0  0  0  0  0  0  0
    3.1293    1.8982    0.0000 C   0  0  0  0  0  0  0  0  0  0  0  0
    4.3321    1.0019    0.0000 O   0  0  0  0  0  0  0  0  0  0  0  0
    3.3042    3.3880    0.0000 O   0  0  0  0  0  0  0  0  0  0  0  0
   -4.7866    1.3169    0.0000 C   0  0  0  0  0  0  0  0  0  0  0  0
  1  2  2  0
  1  3  2  0
  1  4  1  0
  4  5  1  0
  5  6  2  0
  6  7  1  0
  7  8  2  0
  8  9  1  0
  9 10  2  0
 10 11  1  0
 11 12  1  0
 12 13  1  0
 12 14  2  0
  8 15  1  0
 15 16  1  0
 15 17  2  0
  1 18  1  0
 10  5  1  0
M  END
>  <IC50>  (198) 
139991010

>  <cmpdNO>  (198) 
209

$$$$

     RDKit          2D

 17 17  0  0  0  0  0  0  0  0999 V2000
   -4.2524    0.2549    0.0000 O   0  0  0  0  0  0  0  0  0  0  0  0
   -3.4410   -1.0067    0.0000 C   0  0  0  0  0  0  0  0  0  0  0  0
   -4.1278   -2.3402    0.0000 O   0  0  0  0  0  0  0  0  0  0  0  0
   -1.9427   -0.9348    0.0000 C   0  0  0  0  0  0  0  0  0  0  0  0
   -1.2559    0.3987    0.0000 C   0  0  0  0  0  0  0  0  0  0  0  0
    0.2424    0.4706    0.0000 C   0  0  0  0  0  0  0  0  0  0  0  0
    0.9293    1.8042    0.0000 N   0  0  0  0  0  0  0  0  0  0  0  0
    0.1179    3.0657    0.0000 C   0  0  0  0  0  0  0  0  0  0  0  0
    0.8047    4.3992    0.0000 N   0  0  0  0  0  0  0  0  0  0  0  0
   -1.3804    2.9938    0.0000 N   0  0  0  0  0  0  0  0  0  0  0  0
    1.0538   -0.7909    0.0000 C   0  0  0  0  0  0  0  0  0  0  0  0
    0.3670   -2.1244    0.0000 C   0  0  0  0  0  0  0  0  0  0  0  0
   -1.1313   -2.1964    0.0000 C   0  0  0  0  0  0  0  0  0  0  0  0
    2.5521   -0.7190    0.0000 C   0  0  0  0  0  0  0  0  0  0  0  0
    3.2390    0.6145    0.0000 O   0  0  0  0  0  0  0  0  0  0  0  0
    3.3635   -1.9806    0.0000 N   0  0  0  0  0  0  0  0  0  0  0  0
    4.8618   -1.9087    0.0000 C   0  0  0  0  0  0  0  0  0  0  0  0
  1  2  1  0
  2  3  2  0
  2  4  1  0
  4  5  2  0
  5  6  1  0
  6  7  1  0
  7  8  1  0
  8  9  1  0
  8 10  2  0
  6 11  2  0
 11 12  1  0
 12 13  2  0
 11 14  1  0
 14 15  2  0
 14 16  1  0
 16 17  1  0
 13  4  1  0
M  END
>  <IC50>  (199) 
5000350

>  <cmpdNO>  (199) 
210

$$$$

     RDKit          2D

 22 22  0  0  0  0  0  0  0  0999 V2000
   -2.0923   -2.2215    0.0000 P   0  0  0  0  0  0  0  0  0  0  0  0
   -2.2781   -0.7330    0.0000 O   0  0  0  0  0  0  0  0  0  0  0  0
   -1.9065   -3.7099    0.0000 O   0  0  0  0  0  0  0  0  0  0  0  0
   -3.5807   -2.4073    0.0000 O   0  0  0  0  0  0  0  0  0  0  0  0
   -0.6038   -2.0357    0.0000 C   0  0  0  0  0  0  0  0  0  0  0  0
   -1.0453   -0.6021    0.0000 O   0  0  0  0  0  0  0  0  0  0  0  0
   -0.0245    0.4970    0.0000 C   0  0  0  0  0  0  0  0  0  0  0  0
   -0.4659    1.9305    0.0000 C   0  0  0  0  0  0  0  0  0  0  0  0
    0.5549    3.0296    0.0000 O   0  0  0  0  0  0  0  0  0  0  0  0
   -1.9281    2.2650    0.0000 C   0  0  0  0  0  0  0  0  0  0  0  0
   -2.9489    1.1659    0.0000 O   0  0  0  0  0  0  0  0  0  0  0  0
   -2.3696    3.6986    0.0000 C   0  0  0  0  0  0  0  0  0  0  0  0
   -3.8318    4.0331    0.0000 O   0  0  0  0  0  0  0  0  0  0  0  0
    1.4378    0.1625    0.0000 C   0  0  0  0  0  0  0  0  0  0  0  0
    2.4586    1.2615    0.0000 N   0  0  0  0  0  0  0  0  0  0  0  0
    3.9208    0.9270    0.0000 C   0  0  0  0  0  0  0  0  0  0  0  0
    4.3622   -0.5065    0.0000 O   0  0  0  0  0  0  0  0  0  0  0  0
    4.9416    2.0261    0.0000 C   0  0  0  0  0  0  0  0  0  0  0  0
    1.8792   -1.2711    0.0000 C   0  0  0  0  0  0  0  0  0  0  0  0
    3.3414   -1.6056    0.0000 O   0  0  0  0  0  0  0  0  0  0  0  0
    0.8584   -2.3702    0.0000 C   0  0  0  0  0  0  0  0  0  0  0  0
   -0.6793   -3.5338    0.0000 O   0  0  0  0  0  0  0  0  0  0  0  0
  1  2  1  0
  1  3  1  0
  1  4  2  0
  5  1  1  1
  5  6  1  0
  7  6  1  1
  7  8  1  0
  8  9  1  6
  8 10  1  0
 10 11  1  1
 10 12  1  0
 12 13  1  0
  7 14  1  0
 14 15  1  6
 15 16  1  0
 16 17  2  0
 16 18  1  0
 14 19  1  0
 19 20  1  1
 19 21  1  0
  5 22  1  0
 21  5  1  0
M  END
>  <IC50>  (200) 
60006700

>  <cmpdNO>  (200) 
212

$$$$

     RDKit          2D

 22 22  0  0  0  0  0  0  0  0999 V2000
   -1.6971   -0.9938    0.0000 O   0  0  0  0  0  0  0  0  0  0  0  0
   -1.3458    0.4645    0.0000 C   0  0  0  0  0  0  0  0  0  0  0  0
   -2.4330    1.4979    0.0000 C   0  0  0  0  0  0  0  0  0  0  0  0
   -2.0817    2.9562    0.0000 O   0  0  0  0  0  0  0  0  0  0  0  0
   -3.8716    1.0730    0.0000 N   0  0  0  0  0  0  0  0  0  0  0  0
   -4.9588    2.1064    0.0000 C   0  0  0  0  0  0  0  0  0  0  0  0
   -4.2229   -0.3853    0.0000 C   0  0  0  0  0  0  0  0  0  0  0  0
    0.0928    0.8894    0.0000 C   0  0  0  0  0  0  0  0  0  0  0  0
    0.4441    2.3476    0.0000 N   0  0  0  0  0  0  0  0  0  0  0  0
    1.8827    2.7725    0.0000 C   0  0  0  0  0  0  0  0  0  0  0  0
    2.9699    1.7391    0.0000 O   0  0  0  0  0  0  0  0  0  0  0  0
    2.2340    4.2308    0.0000 C   0  0  0  0  0  0  0  0  0  0  0  0
    1.1800   -0.1440    0.0000 C   0  0  0  0  0  0  0  0  0  0  0  0
    2.6186    0.2808    0.0000 N   0  0  0  0  0  0  0  0  0  0  0  0
    3.7058   -0.7526    0.0000 C   0  0  0  0  0  0  0  0  0  0  0  0
    5.1444   -0.3277    0.0000 N   0  0  0  0  0  0  0  0  0  0  0  0
    3.3545   -2.2108    0.0000 N   0  0  0  0  0  0  0  0  0  0  0  0
    0.8287   -1.6023    0.0000 C   0  0  0  0  0  0  0  0  0  0  0  0
   -0.6099   -2.0272    0.0000 C   0  0  0  0  0  0  0  0  0  0  0  0
   -0.9612   -3.4855    0.0000 C   0  0  0  0  0  0  0  0  0  0  0  0
   -2.3998   -3.9103    0.0000 O   0  0  0  0  0  0  0  0  0  0  0  0
    0.1260   -4.5189    0.0000 O   0  0  0  0  0  0  0  0  0  0  0  0
  1  2  1  0
  2  3  1  1
  3  4  2  0
  3  5  1  0
  5  6  1  0
  5  7  1  0
  2  8  1  0
  8  9  1  6
  9 10  1  0
 10 11  2  0
 10 12  1  0
  8 13  1  0
 13 14  1  1
 14 15  1  0
 15 16  1  0
 15 17  2  0
 13 18  1  0
 18 19  2  0
 19 20  1  0
 20 21  1  0
 20 22  2  0
 19  1  1  0
M  END
>  <IC50>  (201) 
23933.199

>  <cmpdNO>  (201) 
213

$$$$

     RDKit          2D

 17 17  0  0  0  0  0  0  0  0999 V2000
    1.2780   -2.4945    0.0000 O   0  0  0  0  0  0  0  0  0  0  0  0
    0.3193   -1.3408    0.0000 C   0  0  0  0  0  0  0  0  0  0  0  0
   -1.1591   -1.5942    0.0000 C   0  0  0  0  0  0  0  0  0  0  0  0
   -2.1178   -0.4405    0.0000 C   0  0  0  0  0  0  0  0  0  0  0  0
   -1.5980    0.9666    0.0000 C   0  0  0  0  0  0  0  0  0  0  0  0
   -0.1196    1.2200    0.0000 C   0  0  0  0  0  0  0  0  0  0  0  0
    0.4002    2.6270    0.0000 N   0  0  0  0  0  0  0  0  0  0  0  0
    1.8787    2.8804    0.0000 O   0  0  0  0  0  0  0  0  0  0  0  0
   -0.5584    3.7807    0.0000 O   0  0  0  0  0  0  0  0  0  0  0  0
    0.8391    0.0663    0.0000 C   0  0  0  0  0  0  0  0  0  0  0  0
    2.3175    0.3197    0.0000 N   0  0  0  0  0  0  0  0  0  0  0  0
    3.2762   -0.8340    0.0000 C   0  0  0  0  0  0  0  0  0  0  0  0
    2.7564   -2.2411    0.0000 O   0  0  0  0  0  0  0  0  0  0  0  0
    4.7546   -0.5806    0.0000 C   0  0  0  0  0  0  0  0  0  0  0  0
   -3.5962   -0.6939    0.0000 C   0  0  0  0  0  0  0  0  0  0  0  0
   -4.5549    0.4598    0.0000 O   0  0  0  0  0  0  0  0  0  0  0  0
   -4.1160   -2.1009    0.0000 O   0  0  0  0  0  0  0  0  0  0  0  0
  1  2  1  0
  2  3  2  0
  3  4  1  0
  4  5  2  0
  5  6  1  0
  6  7  1  0
  7  8  2  0
  7  9  1  0
  6 10  2  0
 10 11  1  0
 11 12  1  0
 12 13  2  0
 12 14  1  0
  4 15  1  0
 15 16  1  0
 15 17  2  0
 10  2  1  0
M  CHG  2   7   1   9  -1
M  END
>  <IC50>  (202) 
750067010

>  <cmpdNO>  (202) 
214

$$$$

     RDKit          2D

 17 17  0  0  0  0  0  0  0  0999 V2000
    0.9808   -4.2108    0.0000 O   0  0  0  0  0  0  0  0  0  0  0  0
    1.6171   -2.8525    0.0000 C   0  0  0  0  0  0  0  0  0  0  0  0
    3.1117   -2.7244    0.0000 O   0  0  0  0  0  0  0  0  0  0  0  0
    0.7589   -1.6222    0.0000 C   0  0  0  0  0  0  0  0  0  0  0  0
   -0.7356   -1.7503    0.0000 C   0  0  0  0  0  0  0  0  0  0  0  0
   -1.5938   -0.5201    0.0000 C   0  0  0  0  0  0  0  0  0  0  0  0
   -3.0883   -0.6482    0.0000 N   0  0  0  0  0  0  0  0  0  0  0  0
   -3.9465    0.5821    0.0000 C   0  0  0  0  0  0  0  0  0  0  0  0
   -5.4410    0.4540    0.0000 N   0  0  0  0  0  0  0  0  0  0  0  0
   -3.3101    1.9404    0.0000 N   0  0  0  0  0  0  0  0  0  0  0  0
   -0.9574    0.8383    0.0000 C   0  0  0  0  0  0  0  0  0  0  0  0
    0.5371    0.9664    0.0000 C   0  0  0  0  0  0  0  0  0  0  0  0
    1.1734    2.3247    0.0000 N   0  0  0  0  0  0  0  0  0  0  0  0
    2.6679    2.4528    0.0000 C   0  0  0  0  0  0  0  0  0  0  0  0
    3.3043    3.8111    0.0000 N   0  0  0  0  0  0  0  0  0  0  0  0
    3.5261    1.2225    0.0000 N   0  0  0  0  0  0  0  0  0  0  0  0
    1.3953   -0.2639    0.0000 C   0  0  0  0  0  0  0  0  0  0  0  0
  1  2  1  0
  2  3  2  0
  2  4  1  0
  4  5  2  0
  5  6  1  0
  6  7  1  0
  7  8  2  0
  8  9  1  0
  8 10  1  0
  6 11  2  0
 11 12  1  0
 12 13  1  0
 13 14  2  0
 14 15  1  0
 14 16  1  0
 12 17  2  0
 17  4  1  0
M  END
>  <IC50>  (203) 
1500030000

>  <cmpdNO>  (203) 
215

$$$$

     RDKit          2D

 20 20  0  0  0  0  0  0  0  0999 V2000
   -0.2598   -1.5000    0.0000 O   0  0  0  0  0  0  0  0  0  0  0  0
   -0.2598    0.0000    0.0000 C   0  0  0  0  0  0  0  0  0  0  0  0
   -1.5588    0.7500    0.0000 C   0  0  0  0  0  0  0  0  0  0  0  0
   -1.5588    2.2500    0.0000 O   0  0  0  0  0  0  0  0  0  0  0  0
   -2.8579    0.0000    0.0000 N   0  0  0  0  0  0  0  0  0  0  0  0
   -4.1569    0.7500    0.0000 C   0  0  0  0  0  0  0  0  0  0  0  0
   -5.4560   -0.0000    0.0000 C   0  0  0  0  0  0  0  0  0  0  0  0
   -6.7550    0.7500    0.0000 C   0  0  0  0  0  0  0  0  0  0  0  0
    1.0392    0.7500    0.0000 C   0  0  0  0  0  0  0  0  0  0  0  0
    1.0392    2.2500    0.0000 N   0  0  0  0  0  0  0  0  0  0  0  0
    2.3383    3.0000    0.0000 C   0  0  0  0  0  0  0  0  0  0  0  0
    3.6373    2.2500    0.0000 O   0  0  0  0  0  0  0  0  0  0  0  0
    2.3383    4.5000    0.0000 C   0  0  0  0  0  0  0  0  0  0  0  0
    2.3383    0.0000    0.0000 C   0  0  0  0  0  0  0  0  0  0  0  0
    3.6373    0.7500    0.0000 N   0  0  0  0  0  0  0  0  0  0  0  0
    2.3383   -1.5000    0.0000 C   0  0  0  0  0  0  0  0  0  0  0  0
    1.0392   -2.2500    0.0000 C   0  0  0  0  0  0  0  0  0  0  0  0
    1.0392   -3.7500    0.0000 C   0  0  0  0  0  0  0  0  0  0  0  0
   -0.2598   -4.5000    0.0000 O   0  0  0  0  0  0  0  0  0  0  0  0
    2.3383   -4.5000    0.0000 O   0  0  0  0  0  0  0  0  0  0  0  0
  1  2  1  0
  2  3  1  1
  3  4  2  0
  3  5  1  0
  5  6  1  0
  6  7  1  0
  7  8  1  0
  2  9  1  0
  9 10  1  6
 10 11  1  0
 11 12  2  0
 11 13  1  0
  9 14  1  0
 14 15  1  1
 14 16  1  0
 16 17  2  0
 17 18  1  0
 18 19  1  0
 18 20  2  0
 17  1  1  0
M  END
>  <IC50>  (204) 
19006400

>  <cmpdNO>  (204) 
216

$$$$

     RDKit          2D

 24 24  0  0  0  0  0  0  0  0999 V2000
    5.7008    0.5857    0.0000 F   0  0  0  0  0  0  0  0  0  0  0  0
    4.5608   -0.3893    0.0000 C   0  0  0  0  0  0  0  0  0  0  0  0
    5.5358   -1.5292    0.0000 F   0  0  0  0  0  0  0  0  0  0  0  0
    3.5859    0.7506    0.0000 F   0  0  0  0  0  0  0  0  0  0  0  0
    3.4209   -1.3643    0.0000 C   0  0  0  0  0  0  0  0  0  0  0  0
    3.6953   -2.8390    0.0000 O   0  0  0  0  0  0  0  0  0  0  0  0
    2.0066   -0.8646    0.0000 N   0  0  0  0  0  0  0  0  0  0  0  0
    0.8667   -1.8395    0.0000 C   0  0  0  0  0  0  0  0  0  0  0  0
   -0.5476   -1.3398    0.0000 C   0  0  0  0  0  0  0  0  0  0  0  0
   -0.9747    0.0981    0.0000 N   0  0  0  0  0  0  0  0  0  0  0  0
   -2.4742    0.1363    0.0000 C   0  0  0  0  0  0  0  0  0  0  0  0
   -2.9739   -1.2780    0.0000 C   0  0  0  0  0  0  0  0  0  0  0  0
   -4.4118   -1.7051    0.0000 C   0  0  0  0  0  0  0  0  0  0  0  0
   -5.5006   -0.6733    0.0000 O   0  0  0  0  0  0  0  0  0  0  0  0
   -4.7610   -3.1639    0.0000 O   0  0  0  0  0  0  0  0  0  0  0  0
   -1.7832   -2.1903    0.0000 C   0  0  0  0  0  0  0  0  0  0  0  0
   -1.8214   -3.6898    0.0000 N   0  0  0  0  0  0  0  0  0  0  0  0
   -0.0624    1.2888    0.0000 C   0  0  0  0  0  0  0  0  0  0  0  0
    1.4249    1.0940    0.0000 O   0  0  0  0  0  0  0  0  0  0  0  0
   -0.6374    2.6742    0.0000 N   0  0  0  0  0  0  0  0  0  0  0  0
    0.2749    3.8649    0.0000 C   0  0  0  0  0  0  0  0  0  0  0  0
   -0.3001    5.2503    0.0000 C   0  0  0  0  0  0  0  0  0  0  0  0
   -2.1247    2.8689    0.0000 C   0  0  0  0  0  0  0  0  0  0  0  0
   -2.6997    4.2543    0.0000 C   0  0  0  0  0  0  0  0  0  0  0  0
  1  2  1  0
  2  3  1  0
  2  4  1  0
  2  5  1  0
  5  6  2  0
  5  7  1  0
  7  8  1  0
  9  8  1  1
  9 10  1  0
 10 11  1  0
 11 12  1  0
 12 13  1  6
 13 14  1  0
 13 15  2  0
 12 16  1  0
 16 17  1  6
 10 18  1  0
 18 19  2  0
 18 20  1  0
 20 21  1  0
 21 22  1  0
 20 23  1  0
 23 24  1  0
 16  9  1  0
M  END
>  <IC50>  (205) 
199986

>  <cmpdNO>  (205) 
217

$$$$

     RDKit          2D

 22 22  0  0  0  0  0  0  0  0999 V2000
   -6.3907   -1.3109    0.0000 O   0  0  0  0  0  0  0  0  0  0  0  0
   -4.9027   -1.5007    0.0000 C   0  0  0  0  0  0  0  0  0  0  0  0
   -4.3232   -2.8843    0.0000 O   0  0  0  0  0  0  0  0  0  0  0  0
   -3.9943   -0.3071    0.0000 C   0  0  0  0  0  0  0  0  0  0  0  0
   -2.4947   -0.3404    0.0000 C   0  0  0  0  0  0  0  0  0  0  0  0
   -1.9996    1.0755    0.0000 N   0  0  0  0  0  0  0  0  0  0  0  0
   -3.1932    1.9839    0.0000 C   0  0  0  0  0  0  0  0  0  0  0  0
   -4.4261    1.1294    0.0000 C   0  0  0  0  0  0  0  0  0  0  0  0
   -5.8420    1.6245    0.0000 N   0  0  0  0  0  0  0  0  0  0  0  0
   -0.5631    1.5073    0.0000 C   0  0  0  0  0  0  0  0  0  0  0  0
   -0.2187    2.9672    0.0000 O   0  0  0  0  0  0  0  0  0  0  0  0
    0.5291    0.4791    0.0000 N   0  0  0  0  0  0  0  0  0  0  0  0
    0.1847   -0.9809    0.0000 C   0  0  0  0  0  0  0  0  0  0  0  0
    1.2769   -2.0091    0.0000 C   0  0  0  0  0  0  0  0  0  0  0  0
   -1.2518   -1.4126    0.0000 C   0  0  0  0  0  0  0  0  0  0  0  0
    1.9656    0.9108    0.0000 C   0  0  0  0  0  0  0  0  0  0  0  0
    3.0578   -0.1174    0.0000 C   0  0  0  0  0  0  0  0  0  0  0  0
    4.4943    0.3143    0.0000 C   0  0  0  0  0  0  0  0  0  0  0  0
    5.5864   -0.7139    0.0000 C   0  0  0  0  0  0  0  0  0  0  0  0
    7.0230   -0.2822    0.0000 C   0  0  0  0  0  0  0  0  0  0  0  0
    8.1151   -1.3104    0.0000 O   0  0  0  0  0  0  0  0  0  0  0  0
    7.3673    1.1778    0.0000 O   0  0  0  0  0  0  0  0  0  0  0  0
  1  2  1  0
  2  3  2  0
  4  2  1  6
  4  5  1  0
  5  6  1  0
  6  7  1  0
  7  8  1  0
  8  9  1  6
  6 10  1  0
 10 11  2  0
 10 12  1  0
 12 13  1  0
 13 14  1  0
 13 15  1  0
 12 16  1  0
 16 17  1  0
 17 18  1  0
 18 19  1  0
 19 20  1  0
 20 21  1  0
 20 22  2  0
  8  4  1  0
M  END
>  <IC50>  (206) 
1299870

>  <cmpdNO>  (206) 
218

$$$$

     RDKit          2D

 23 23  0  0  0  0  0  0  0  0999 V2000
   -0.9344   -1.4839    0.0000 O   0  0  0  0  0  0  0  0  0  0  0  0
   -0.9606    0.0159    0.0000 C   0  0  0  0  0  0  0  0  0  0  0  0
   -2.2725    0.7431    0.0000 C   0  0  0  0  0  0  0  0  0  0  0  0
   -2.2987    2.2428    0.0000 O   0  0  0  0  0  0  0  0  0  0  0  0
   -3.5583   -0.0295    0.0000 N   0  0  0  0  0  0  0  0  0  0  0  0
   -4.8702    0.6977    0.0000 C   0  0  0  0  0  0  0  0  0  0  0  0
   -6.1559   -0.0748    0.0000 C   0  0  0  0  0  0  0  0  0  0  0  0
   -7.4679    0.6524    0.0000 C   0  0  0  0  0  0  0  0  0  0  0  0
    0.3252    0.7884    0.0000 C   0  0  0  0  0  0  0  0  0  0  0  0
    0.2990    2.2882    0.0000 N   0  0  0  0  0  0  0  0  0  0  0  0
    1.5848    3.0607    0.0000 C   0  0  0  0  0  0  0  0  0  0  0  0
    2.8967    2.3335    0.0000 O   0  0  0  0  0  0  0  0  0  0  0  0
    1.5586    4.5605    0.0000 C   0  0  0  0  0  0  0  0  0  0  0  0
    1.6371    0.0612    0.0000 C   0  0  0  0  0  0  0  0  0  0  0  0
    2.9229    0.8337    0.0000 N   0  0  0  0  0  0  0  0  0  0  0  0
    4.2348    0.1065    0.0000 C   0  0  0  0  0  0  0  0  0  0  0  0
    5.5205    0.8791    0.0000 N   0  0  0  0  0  0  0  0  0  0  0  0
    4.2610   -1.3933    0.0000 N   0  0  0  0  0  0  0  0  0  0  0  0
    1.6633   -1.4386    0.0000 C   0  0  0  0  0  0  0  0  0  0  0  0
    0.3775   -2.2111    0.0000 C   0  0  0  0  0  0  0  0  0  0  0  0
    0.4037   -3.7109    0.0000 C   0  0  0  0  0  0  0  0  0  0  0  0
   -0.8821   -4.4835    0.0000 O   0  0  0  0  0  0  0  0  0  0  0  0
    1.7156   -4.4381    0.0000 O   0  0  0  0  0  0  0  0  0  0  0  0
  1  2  1  0
  2  3  1  1
  3  4  2  0
  3  5  1  0
  5  6  1  0
  6  7  1  0
  7  8  1  0
  2  9  1  0
  9 10  1  6
 10 11  1  0
 11 12  2  0
 11 13  1  0
  9 14  1  0
 14 15  1  1
 15 16  1  0
 16 17  1  0
 16 18  2  0
 14 19  1  0
 19 20  2  0
 20 21  1  0
 21 22  1  0
 21 23  2  0
 20  1  1  0
M  END
>  <IC50>  (207) 
19998.6

>  <cmpdNO>  (207) 
219

$$$$

     RDKit          2D

 21 21  0  0  0  0  0  0  0  0999 V2000
   -1.3560    0.1035    0.0000 O   0  0  0  0  0  0  0  0  0  0  0  0
   -0.1117    0.9412    0.0000 C   0  0  0  0  0  0  0  0  0  0  0  0
    1.2974    0.4269    0.0000 C   0  0  0  0  0  0  0  0  0  0  0  0
    2.4473    1.3901    0.0000 N   0  0  0  0  0  0  0  0  0  0  0  0
    3.8564    0.8759    0.0000 C   0  0  0  0  0  0  0  0  0  0  0  0
    4.1156   -0.6016    0.0000 O   0  0  0  0  0  0  0  0  0  0  0  0
    5.0063    1.8390    0.0000 C   0  0  0  0  0  0  0  0  0  0  0  0
    1.5566   -1.0505    0.0000 C   0  0  0  0  0  0  0  0  0  0  0  0
    2.9657   -1.5648    0.0000 O   0  0  0  0  0  0  0  0  0  0  0  0
    0.4067   -2.0137    0.0000 C   0  0  0  0  0  0  0  0  0  0  0  0
   -1.0024   -1.4994    0.0000 O   0  0  0  0  0  0  0  0  0  0  0  0
    0.6658   -3.4911    0.0000 C   0  0  0  0  0  0  0  0  0  0  0  0
   -0.4841   -4.4543    0.0000 O   0  0  0  0  0  0  0  0  0  0  0  0
   -0.5239    2.3835    0.0000 C   0  0  0  0  0  0  0  0  0  0  0  0
    0.4007    3.5647    0.0000 O   0  0  0  0  0  0  0  0  0  0  0  0
   -2.0229    2.4371    0.0000 C   0  0  0  0  0  0  0  0  0  0  0  0
   -2.5372    1.0280    0.0000 C   0  0  0  0  0  0  0  0  0  0  0  0
   -3.8848    1.6868    0.0000 O   0  0  0  0  0  0  0  0  0  0  0  0
   -3.3332   -0.2433    0.0000 C   0  0  0  0  0  0  0  0  0  0  0  0
   -4.8322   -0.1897    0.0000 O   0  0  0  0  0  0  0  0  0  0  0  0
   -2.6301   -1.5684    0.0000 O   0  0  0  0  0  0  0  0  0  0  0  0
  2  1  1  1
  2  3  1  0
  3  4  1  6
  4  5  1  0
  5  6  2  0
  5  7  1  0
  3  8  1  0
  8  9  1  6
  8 10  1  0
 10 11  1  1
 10 12  1  0
 12 13  1  0
  2 14  1  0
 14 15  1  6
 14 16  1  0
 16 17  1  0
 17 18  1  0
 17 19  1  0
 19 20  1  0
 19 21  2  0
 17  1  1  0
M  END
>  <IC50>  (208) 
115001

>  <cmpdNO>  (208) 
220

$$$$

     RDKit          2D

 19 19  0  0  0  0  0  0  0  0999 V2000
    0.1105   -2.5990    0.0000 P   0  0  0  0  0  0  0  0  0  0  0  0
   -0.9020   -1.4923    0.0000 O   0  0  0  0  0  0  0  0  0  0  0  0
   -0.4499   -0.0621    0.0000 C   0  0  0  0  0  0  0  0  0  0  0  0
   -1.4624    1.0446    0.0000 C   0  0  0  0  0  0  0  0  0  0  0  0
   -1.0102    2.4748    0.0000 O   0  0  0  0  0  0  0  0  0  0  0  0
   -2.9271    0.7211    0.0000 C   0  0  0  0  0  0  0  0  0  0  0  0
   -3.3793   -0.7092    0.0000 O   0  0  0  0  0  0  0  0  0  0  0  0
   -3.9396    1.8278    0.0000 C   0  0  0  0  0  0  0  0  0  0  0  0
   -5.4043    1.5042    0.0000 O   0  0  0  0  0  0  0  0  0  0  0  0
    1.0148    0.2614    0.0000 C   0  0  0  0  0  0  0  0  0  0  0  0
    1.4670    1.6916    0.0000 N   0  0  0  0  0  0  0  0  0  0  0  0
    2.9317    2.0152    0.0000 C   0  0  0  0  0  0  0  0  0  0  0  0
    3.9442    0.9085    0.0000 O   0  0  0  0  0  0  0  0  0  0  0  0
    3.3839    3.4454    0.0000 C   0  0  0  0  0  0  0  0  0  0  0  0
    2.0273   -0.8453    0.0000 C   0  0  0  0  0  0  0  0  0  0  0  0
    3.4920   -0.5218    0.0000 O   0  0  0  0  0  0  0  0  0  0  0  0
    1.5752   -2.2755    0.0000 C   0  0  0  0  0  0  0  0  0  0  0  0
   -1.1552   -3.4040    0.0000 O   0  0  0  0  0  0  0  0  0  0  0  0
    0.6834   -3.9853    0.0000 O   0  0  0  0  0  0  0  0  0  0  0  0
  1  2  1  0
  3  2  1  1
  3  4  1  0
  4  5  1  6
  4  6  1  0
  6  7  1  1
  6  8  1  0
  8  9  1  0
  3 10  1  0
 10 11  1  6
 11 12  1  0
 12 13  2  0
 12 14  1  0
 10 15  1  0
 15 16  1  1
 15 17  1  0
  1 18  1  0
  1 19  2  0
 17  1  1  0
M  END
>  <IC50>  (209) 
40003700

>  <cmpdNO>  (209) 
221

$$$$

     RDKit          2D

 19 19  0  0  0  0  0  0  0  0999 V2000
    1.5648   -0.1602    0.0000 O   0  0  0  0  0  0  0  0  0  0  0  0
    0.1812   -0.7395    0.0000 C   0  0  0  0  0  0  0  0  0  0  0  0
   -0.0089   -2.2274    0.0000 C   0  0  0  0  0  0  0  0  0  0  0  0
   -1.3925   -2.8067    0.0000 O   0  0  0  0  0  0  0  0  0  0  0  0
    1.1846   -3.1360    0.0000 N   0  0  0  0  0  0  0  0  0  0  0  0
    0.9945   -4.6239    0.0000 C   0  0  0  0  0  0  0  0  0  0  0  0
    2.5682   -2.5567    0.0000 C   0  0  0  0  0  0  0  0  0  0  0  0
   -1.0123    0.1691    0.0000 C   0  0  0  0  0  0  0  0  0  0  0  0
   -2.3959   -0.4101    0.0000 N   0  0  0  0  0  0  0  0  0  0  0  0
   -3.5894    0.4985    0.0000 C   0  0  0  0  0  0  0  0  0  0  0  0
   -3.3993    1.9864    0.0000 O   0  0  0  0  0  0  0  0  0  0  0  0
   -4.9730   -0.0808    0.0000 C   0  0  0  0  0  0  0  0  0  0  0  0
   -0.8222    1.6570    0.0000 C   0  0  0  0  0  0  0  0  0  0  0  0
   -2.0156    2.5657    0.0000 N   0  0  0  0  0  0  0  0  0  0  0  0
    0.5615    2.2363    0.0000 C   0  0  0  0  0  0  0  0  0  0  0  0
    1.7550    1.3277    0.0000 C   0  0  0  0  0  0  0  0  0  0  0  0
    3.1386    1.9070    0.0000 C   0  0  0  0  0  0  0  0  0  0  0  0
    4.3321    0.9984    0.0000 O   0  0  0  0  0  0  0  0  0  0  0  0
    3.3287    3.3949    0.0000 O   0  0  0  0  0  0  0  0  0  0  0  0
  1  2  1  0
  2  3  1  1
  3  4  2  0
  3  5  1  0
  5  6  1  0
  5  7  1  0
  2  8  1  0
  8  9  1  6
  9 10  1  0
 10 11  2  0
 10 12  1  0
  8 13  1  0
 13 14  1  1
 13 15  1  0
 15 16  2  0
 16 17  1  0
 17 18  1  0
 17 19  2  0
 16  1  1  0
M  END
>  <IC50>  (210) 
2399940

>  <cmpdNO>  (210) 
222

$$$$

     RDKit          2D

 20 20  0  0  0  0  0  0  0  0999 V2000
   -1.0567   -1.0076    0.0000 O   0  0  0  0  0  0  0  0  0  0  0  0
   -0.3474    0.3141    0.0000 C   0  0  0  0  0  0  0  0  0  0  0  0
   -1.1375    1.5892    0.0000 C   0  0  0  0  0  0  0  0  0  0  0  0
   -0.4283    2.9109    0.0000 O   0  0  0  0  0  0  0  0  0  0  0  0
   -2.6368    1.5425    0.0000 C   0  0  0  0  0  0  0  0  0  0  0  0
   -3.3460    0.2208    0.0000 O   0  0  0  0  0  0  0  0  0  0  0  0
   -3.4268    2.8176    0.0000 C   0  0  0  0  0  0  0  0  0  0  0  0
   -4.9261    2.7709    0.0000 O   0  0  0  0  0  0  0  0  0  0  0  0
    1.1518    0.3608    0.0000 C   0  0  0  0  0  0  0  0  0  0  0  0
    1.8611    1.6825    0.0000 N   0  0  0  0  0  0  0  0  0  0  0  0
    3.3603    1.7292    0.0000 C   0  0  0  0  0  0  0  0  0  0  0  0
    4.1504    0.4541    0.0000 O   0  0  0  0  0  0  0  0  0  0  0  0
    4.0696    3.0509    0.0000 C   0  0  0  0  0  0  0  0  0  0  0  0
    1.9419   -0.9143    0.0000 C   0  0  0  0  0  0  0  0  0  0  0  0
    3.4412   -0.8677    0.0000 O   0  0  0  0  0  0  0  0  0  0  0  0
    1.2327   -2.2361    0.0000 C   0  0  0  0  0  0  0  0  0  0  0  0
   -0.2666   -2.2827    0.0000 C   0  0  0  0  0  0  0  0  0  0  0  0
   -0.9758   -3.6045    0.0000 C   0  0  0  0  0  0  0  0  0  0  0  0
   -2.4751   -3.6511    0.0000 O   0  0  0  0  0  0  0  0  0  0  0  0
   -0.1858   -4.8795    0.0000 O   0  0  0  0  0  0  0  0  0  0  0  0
  2  1  1  1
  2  3  1  0
  3  4  1  1
  3  5  1  0
  5  6  1  6
  5  7  1  0
  7  8  1  0
  2  9  1  0
  9 10  1  6
 10 11  1  0
 11 12  2  0
 11 13  1  0
  9 14  1  0
 14 15  1  1
 14 16  1  0
 16 17  2  0
 17 18  1  0
 18 19  1  0
 18 20  2  0
 17  1  1  0
M  END
>  <IC50>  (211) 
8.60003E+12

>  <cmpdNO>  (211) 
223

$$$$

     RDKit          2D

 17 17  0  0  0  0  0  0  0  0999 V2000
    2.4197   -1.4116    0.0000 S   0  0  0  0  0  0  0  0  0  0  0  0
    2.7098    0.0600    0.0000 O   0  0  0  0  0  0  0  0  0  0  0  0
    2.1296   -2.8833    0.0000 O   0  0  0  0  0  0  0  0  0  0  0  0
    3.8914   -1.7018    0.0000 C   0  0  0  0  0  0  0  0  0  0  0  0
    0.9480   -1.1215    0.0000 C   0  0  0  0  0  0  0  0  0  0  0  0
   -0.0391   -2.2510    0.0000 C   0  0  0  0  0  0  0  0  0  0  0  0
   -1.5107   -1.9608    0.0000 C   0  0  0  0  0  0  0  0  0  0  0  0
   -1.9953   -0.5413    0.0000 C   0  0  0  0  0  0  0  0  0  0  0  0
   -1.0082    0.5882    0.0000 C   0  0  0  0  0  0  0  0  0  0  0  0
    0.4635    0.2981    0.0000 C   0  0  0  0  0  0  0  0  0  0  0  0
    1.4506    1.4275    0.0000 N   0  0  0  0  0  0  0  0  0  0  0  0
    0.9660    2.8471    0.0000 C   0  0  0  0  0  0  0  0  0  0  0  0
   -0.5057    3.1372    0.0000 N   0  0  0  0  0  0  0  0  0  0  0  0
    1.9531    3.9765    0.0000 N   0  0  0  0  0  0  0  0  0  0  0  0
   -3.4670   -0.2511    0.0000 C   0  0  0  0  0  0  0  0  0  0  0  0
   -3.9516    1.1684    0.0000 O   0  0  0  0  0  0  0  0  0  0  0  0
   -4.4541   -1.3806    0.0000 O   0  0  0  0  0  0  0  0  0  0  0  0
  1  2  2  0
  1  3  2  0
  1  4  1  0
  1  5  1  0
  5  6  2  0
  6  7  1  0
  7  8  2  0
  8  9  1  0
  9 10  2  0
 10 11  1  0
 11 12  1  0
 12 13  1  0
 12 14  2  0
  8 15  1  0
 15 16  1  0
 15 17  2  0
 10  5  1  0
M  END
>  <IC50>  (212) 
8999119900

>  <cmpdNO>  (212) 
224

$$$$

     RDKit          2D

 20 20  0  0  0  0  0  0  0  0999 V2000
   -1.0567   -1.0076    0.0000 O   0  0  0  0  0  0  0  0  0  0  0  0
   -0.3474    0.3141    0.0000 C   0  0  0  0  0  0  0  0  0  0  0  0
   -1.1375    1.5892    0.0000 C   0  0  0  0  0  0  0  0  0  0  0  0
   -0.4283    2.9109    0.0000 O   0  0  0  0  0  0  0  0  0  0  0  0
   -2.6368    1.5425    0.0000 C   0  0  0  0  0  0  0  0  0  0  0  0
   -3.3460    0.2208    0.0000 O   0  0  0  0  0  0  0  0  0  0  0  0
   -3.4268    2.8176    0.0000 C   0  0  0  0  0  0  0  0  0  0  0  0
   -4.9261    2.7709    0.0000 O   0  0  0  0  0  0  0  0  0  0  0  0
    1.1518    0.3608    0.0000 C   0  0  0  0  0  0  0  0  0  0  0  0
    1.8611    1.6825    0.0000 N   0  0  0  0  0  0  0  0  0  0  0  0
    3.3603    1.7292    0.0000 C   0  0  0  0  0  0  0  0  0  0  0  0
    4.1504    0.4541    0.0000 O   0  0  0  0  0  0  0  0  0  0  0  0
    4.0696    3.0509    0.0000 C   0  0  0  0  0  0  0  0  0  0  0  0
    1.9419   -0.9143    0.0000 C   0  0  0  0  0  0  0  0  0  0  0  0
    3.4412   -0.8677    0.0000 N   0  0  0  0  0  0  0  0  0  0  0  0
    1.2327   -2.2361    0.0000 C   0  0  0  0  0  0  0  0  0  0  0  0
   -0.2666   -2.2827    0.0000 C   0  0  0  0  0  0  0  0  0  0  0  0
   -0.9758   -3.6045    0.0000 C   0  0  0  0  0  0  0  0  0  0  0  0
   -2.4751   -3.6511    0.0000 O   0  0  0  0  0  0  0  0  0  0  0  0
   -0.1858   -4.8795    0.0000 O   0  0  0  0  0  0  0  0  0  0  0  0
  2  1  1  1
  2  3  1  0
  3  4  1  1
  3  5  1  0
  5  6  1  6
  5  7  1  0
  7  8  1  0
  2  9  1  0
  9 10  1  6
 10 11  1  0
 11 12  2  0
 11 13  1  0
  9 14  1  0
 14 15  1  1
 14 16  1  0
 16 17  2  0
 17 18  1  0
 18 19  1  0
 18 20  2  0
 17  1  1  0
M  END
>  <IC50>  (213) 
319963010

>  <cmpdNO>  (213) 
225

$$$$

     RDKit          2D

 18 18  0  0  0  0  0  0  0  0999 V2000
    2.5793   -1.5921    0.0000 S   0  0  0  0  0  0  0  0  0  0  0  0
    1.2587   -2.3036    0.0000 O   0  0  0  0  0  0  0  0  0  0  0  0
    3.8998   -0.8807    0.0000 O   0  0  0  0  0  0  0  0  0  0  0  0
    1.8678   -0.2716    0.0000 N   0  0  0  0  0  0  0  0  0  0  0  0
    0.3685   -0.2274    0.0000 C   0  0  0  0  0  0  0  0  0  0  0  0
   -0.4194   -1.5039    0.0000 C   0  0  0  0  0  0  0  0  0  0  0  0
   -1.9188   -1.4597    0.0000 C   0  0  0  0  0  0  0  0  0  0  0  0
   -2.6302   -0.1392    0.0000 C   0  0  0  0  0  0  0  0  0  0  0  0
   -1.8423    1.1372    0.0000 C   0  0  0  0  0  0  0  0  0  0  0  0
   -0.3430    1.0931    0.0000 C   0  0  0  0  0  0  0  0  0  0  0  0
    0.4449    2.3695    0.0000 N   0  0  0  0  0  0  0  0  0  0  0  0
    1.9443    2.3254    0.0000 C   0  0  0  0  0  0  0  0  0  0  0  0
    2.7321    3.6018    0.0000 N   0  0  0  0  0  0  0  0  0  0  0  0
    2.6557    1.0048    0.0000 N   0  0  0  0  0  0  0  0  0  0  0  0
   -4.1296   -0.0951    0.0000 C   0  0  0  0  0  0  0  0  0  0  0  0
   -4.8410    1.2255    0.0000 O   0  0  0  0  0  0  0  0  0  0  0  0
   -4.9175   -1.3715    0.0000 O   0  0  0  0  0  0  0  0  0  0  0  0
    3.2907   -2.9127    0.0000 C   0  0  0  0  0  0  0  0  0  0  0  0
  1  2  2  0
  1  3  2  0
  1  4  1  0
  4  5  1  0
  5  6  2  0
  6  7  1  0
  7  8  2  0
  8  9  1  0
  9 10  2  0
 10 11  1  0
 11 12  1  0
 12 13  1  0
 12 14  2  0
  8 15  1  0
 15 16  1  0
 15 17  2  0
  1 18  1  0
 10  5  1  0
M  END
>  <IC50>  (214) 
100000000

>  <cmpdNO>  (214) 
226

$$$$

     RDKit          2D

 21 21  0  0  0  0  0  0  0  0999 V2000
   -6.0007   -1.4301    0.0000 O   0  0  0  0  0  0  0  0  0  0  0  0
   -4.5079   -1.5766    0.0000 C   0  0  0  0  0  0  0  0  0  0  0  0
   -3.8883   -2.9427    0.0000 O   0  0  0  0  0  0  0  0  0  0  0  0
   -3.6346   -0.3570    0.0000 C   0  0  0  0  0  0  0  0  0  0  0  0
   -2.1347   -0.3466    0.0000 C   0  0  0  0  0  0  0  0  0  0  0  0
   -1.6810    1.0831    0.0000 N   0  0  0  0  0  0  0  0  0  0  0  0
   -2.9006    1.9564    0.0000 C   0  0  0  0  0  0  0  0  0  0  0  0
   -4.1080    1.0663    0.0000 C   0  0  0  0  0  0  0  0  0  0  0  0
   -5.5378    1.5200    0.0000 N   0  0  0  0  0  0  0  0  0  0  0  0
   -0.2577    1.5565    0.0000 C   0  0  0  0  0  0  0  0  0  0  0  0
    0.0440    3.0258    0.0000 O   0  0  0  0  0  0  0  0  0  0  0  0
    0.8639    0.5605    0.0000 N   0  0  0  0  0  0  0  0  0  0  0  0
    0.5622   -0.9088    0.0000 C   0  0  0  0  0  0  0  0  0  0  0  0
    1.6839   -1.9048    0.0000 C   0  0  0  0  0  0  0  0  0  0  0  0
   -0.8611   -1.3822    0.0000 C   0  0  0  0  0  0  0  0  0  0  0  0
    2.2873    1.0339    0.0000 C   0  0  0  0  0  0  0  0  0  0  0  0
    3.4089    0.0380    0.0000 C   0  0  0  0  0  0  0  0  0  0  0  0
    4.8323    0.5113    0.0000 C   0  0  0  0  0  0  0  0  0  0  0  0
    5.9539   -0.4846    0.0000 C   0  0  0  0  0  0  0  0  0  0  0  0
    7.3772   -0.0113    0.0000 C   0  0  0  0  0  0  0  0  0  0  0  0
    8.4989   -1.0072    0.0000 O   0  0  0  0  0  0  0  0  0  0  0  0
  1  2  1  0
  2  3  2  0
  4  2  1  6
  4  5  1  0
  5  6  1  0
  6  7  1  0
  7  8  1  0
  8  9  1  6
  6 10  1  0
 10 11  2  0
 10 12  1  0
 12 13  1  0
 13 14  1  0
 13 15  1  0
 12 16  1  0
 16 17  1  0
 17 18  1  0
 18 19  1  0
 19 20  1  0
 20 21  1  0
  8  4  1  0
M  END
>  <IC50>  (215) 
1999860

>  <cmpdNO>  (215) 
227

$$$$

     RDKit          2D

 19 19  0  0  0  0  0  0  0  0999 V2000
    1.4172   -2.0786    0.0000 P   0  0  0  0  0  0  0  0  0  0  0  0
   -0.0325   -1.6932    0.0000 O   0  0  0  0  0  0  0  0  0  0  0  0
    2.8668   -2.4640    0.0000 O   0  0  0  0  0  0  0  0  0  0  0  0
    1.0318   -3.5283    0.0000 O   0  0  0  0  0  0  0  0  0  0  0  0
    1.8026   -0.6290    0.0000 C   0  0  0  0  0  0  0  0  0  0  0  0
    0.3080   -0.5011    0.0000 O   0  0  0  0  0  0  0  0  0  0  0  0
   -0.3285    0.8571    0.0000 C   0  0  0  0  0  0  0  0  0  0  0  0
   -1.8231    0.9849    0.0000 C   0  0  0  0  0  0  0  0  0  0  0  0
   -2.4597    2.3431    0.0000 O   0  0  0  0  0  0  0  0  0  0  0  0
   -2.6810   -0.2455    0.0000 C   0  0  0  0  0  0  0  0  0  0  0  0
   -2.0445   -1.6037    0.0000 O   0  0  0  0  0  0  0  0  0  0  0  0
   -4.1756   -0.1177    0.0000 C   0  0  0  0  0  0  0  0  0  0  0  0
   -5.0336   -1.3481    0.0000 O   0  0  0  0  0  0  0  0  0  0  0  0
    0.5294    2.0875    0.0000 C   0  0  0  0  0  0  0  0  0  0  0  0
   -0.1071    3.4457    0.0000 O   0  0  0  0  0  0  0  0  0  0  0  0
    2.0240    1.9597    0.0000 C   0  0  0  0  0  0  0  0  0  0  0  0
    2.8819    3.1901    0.0000 O   0  0  0  0  0  0  0  0  0  0  0  0
    2.6606    0.6014    0.0000 C   0  0  0  0  0  0  0  0  0  0  0  0
    3.1633   -1.2602    0.0000 O   0  0  0  0  0  0  0  0  0  0  0  0
  1  2  1  0
  1  3  1  0
  1  4  2  0
  5  1  1  1
  5  6  1  0
  7  6  1  1
  7  8  1  0
  8  9  1  6
  8 10  1  0
 10 11  1  1
 10 12  1  0
 12 13  1  0
  7 14  1  0
 14 15  1  6
 14 16  1  0
 16 17  1  1
 16 18  1  0
  5 19  1  0
 18  5  1  0
M  END
>  <IC50>  (216) 
199986000

>  <cmpdNO>  (216) 
228

$$$$

     RDKit          2D

 17 17  0  0  0  0  0  0  0  0999 V2000
    4.6198   -1.3887    0.0000 O   0  0  0  0  0  0  0  0  0  0  0  0
    3.9822   -0.0310    0.0000 C   0  0  0  0  0  0  0  0  0  0  0  0
    4.8393    1.2000    0.0000 O   0  0  0  0  0  0  0  0  0  0  0  0
    2.4876    0.0958    0.0000 C   0  0  0  0  0  0  0  0  0  0  0  0
    1.6305   -1.1352    0.0000 C   0  0  0  0  0  0  0  0  0  0  0  0
    0.1359   -1.0085    0.0000 C   0  0  0  0  0  0  0  0  0  0  0  0
   -0.7212   -2.2395    0.0000 N   0  0  0  0  0  0  0  0  0  0  0  0
   -2.2159   -2.1127    0.0000 C   0  0  0  0  0  0  0  0  0  0  0  0
   -3.0730   -3.3437    0.0000 N   0  0  0  0  0  0  0  0  0  0  0  0
   -2.8534   -0.7550    0.0000 N   0  0  0  0  0  0  0  0  0  0  0  0
   -0.5017    0.3493    0.0000 C   0  0  0  0  0  0  0  0  0  0  0  0
   -1.9963    0.4761    0.0000 N   0  0  0  0  0  0  0  0  0  0  0  0
   -2.6339    1.8338    0.0000 C   0  0  0  0  0  0  0  0  0  0  0  0
   -1.7768    3.0648    0.0000 O   0  0  0  0  0  0  0  0  0  0  0  0
   -4.1285    1.9606    0.0000 C   0  0  0  0  0  0  0  0  0  0  0  0
    0.3554    1.5803    0.0000 C   0  0  0  0  0  0  0  0  0  0  0  0
    1.8500    1.4536    0.0000 C   0  0  0  0  0  0  0  0  0  0  0  0
  1  2  1  0
  2  3  2  0
  2  4  1  0
  4  5  2  0
  5  6  1  0
  6  7  1  0
  7  8  1  0
  8  9  1  0
  8 10  2  0
  6 11  2  0
 11 12  1  0
 12 13  1  0
 13 14  2  0
 13 15  1  0
 11 16  1  0
 16 17  2  0
 17  4  1  0
M  END
>  <IC50>  (217) 
2499770

>  <cmpdNO>  (217) 
229

$$$$

     RDKit          2D

 15 15  0  0  0  0  0  0  0  0999 V2000
    1.4643   -1.9813    0.0000 O   0  0  0  0  0  0  0  0  0  0  0  0
    0.4506   -0.8758    0.0000 C   0  0  0  0  0  0  0  0  0  0  0  0
   -1.0138   -1.2009    0.0000 C   0  0  0  0  0  0  0  0  0  0  0  0
   -2.0275   -0.0954    0.0000 C   0  0  0  0  0  0  0  0  0  0  0  0
   -1.5770    1.3353    0.0000 C   0  0  0  0  0  0  0  0  0  0  0  0
   -0.1126    1.6605    0.0000 C   0  0  0  0  0  0  0  0  0  0  0  0
    0.3379    3.0912    0.0000 N   0  0  0  0  0  0  0  0  0  0  0  0
    0.9011    0.5550    0.0000 C   0  0  0  0  0  0  0  0  0  0  0  0
    2.3655    0.8801    0.0000 N   0  0  0  0  0  0  0  0  0  0  0  0
    3.3792   -0.2254    0.0000 C   0  0  0  0  0  0  0  0  0  0  0  0
    2.9287   -1.6562    0.0000 O   0  0  0  0  0  0  0  0  0  0  0  0
    4.8436    0.0997    0.0000 C   0  0  0  0  0  0  0  0  0  0  0  0
   -3.4919   -0.4205    0.0000 C   0  0  0  0  0  0  0  0  0  0  0  0
   -4.5056    0.6850    0.0000 O   0  0  0  0  0  0  0  0  0  0  0  0
   -3.9424   -1.8513    0.0000 O   0  0  0  0  0  0  0  0  0  0  0  0
  2  1  1  6
  2  3  1  0
  3  4  2  0
  4  5  1  0
  5  6  1  0
  6  7  1  6
  6  8  1  0
  8  9  1  1
  9 10  1  0
 10 11  2  0
 10 12  1  0
  4 13  1  0
 13 14  1  0
 13 15  2  0
  8  2  1  0
M  END
>  <IC50>  (218) 
6299410

>  <cmpdNO>  (218) 
230

$$$$

     RDKit          2D

 16 16  0  0  0  0  0  0  0  0999 V2000
   -2.4519    0.5866    0.0000 O   0  0  0  0  0  0  0  0  0  0  0  0
   -3.8950    0.1773    0.0000 C   0  0  0  0  0  0  0  0  0  0  0  0
   -4.3042    1.6204    0.0000 C   0  0  0  0  0  0  0  0  0  0  0  0
   -3.4857   -1.2657    0.0000 C   0  0  0  0  0  0  0  0  0  0  0  0
   -5.3380   -0.2319    0.0000 C   0  0  0  0  0  0  0  0  0  0  0  0
   -1.3759   -0.4585    0.0000 C   0  0  0  0  0  0  0  0  0  0  0  0
   -1.7430   -1.9129    0.0000 O   0  0  0  0  0  0  0  0  0  0  0  0
    0.0672   -0.0492    0.0000 N   0  0  0  0  0  0  0  0  0  0  0  0
    1.2465   -0.9761    0.0000 C   0  0  0  0  0  0  0  0  0  0  0  0
    2.4925   -0.1410    0.0000 C   0  0  0  0  0  0  0  0  0  0  0  0
    3.9006   -0.6581    0.0000 C   0  0  0  0  0  0  0  0  0  0  0  0
    4.1567   -2.1360    0.0000 O   0  0  0  0  0  0  0  0  0  0  0  0
    5.0524    0.3028    0.0000 O   0  0  0  0  0  0  0  0  0  0  0  0
    2.0832    1.3021    0.0000 C   0  0  0  0  0  0  0  0  0  0  0  0
    3.0102    2.4815    0.0000 N   0  0  0  0  0  0  0  0  0  0  0  0
    0.5843    1.3588    0.0000 C   0  0  0  0  0  0  0  0  0  0  0  0
  1  2  1  0
  2  3  1  0
  2  4  1  0
  2  5  1  0
  1  6  1  0
  6  7  2  0
  6  8  1  0
  8  9  1  0
  9 10  1  0
 10 11  1  1
 11 12  1  0
 11 13  2  0
 10 14  1  0
 14 15  1  1
 14 16  1  0
 16  8  1  0
M  END
>  <IC50>  (219) 
50003.5

>  <cmpdNO>  (219) 
231

$$$$

     RDKit          2D

 25 25  0  0  0  0  0  0  0  0999 V2000
    0.4091   -1.1841    0.0000 O   0  0  0  0  0  0  0  0  0  0  0  0
    0.8335    0.2546    0.0000 C   0  0  0  0  0  0  0  0  0  0  0  0
   -0.2002    1.3415    0.0000 C   0  0  0  0  0  0  0  0  0  0  0  0
    0.2242    2.7802    0.0000 O   0  0  0  0  0  0  0  0  0  0  0  0
   -1.6584    0.9897    0.0000 N   0  0  0  0  0  0  0  0  0  0  0  0
   -2.6921    2.0766    0.0000 C   0  0  0  0  0  0  0  0  0  0  0  0
   -4.1503    1.7247    0.0000 C   0  0  0  0  0  0  0  0  0  0  0  0
   -5.1840    2.8116    0.0000 C   0  0  0  0  0  0  0  0  0  0  0  0
   -6.6422    2.4598    0.0000 C   0  0  0  0  0  0  0  0  0  0  0  0
   -2.0828   -0.4491    0.0000 C   0  0  0  0  0  0  0  0  0  0  0  0
   -3.5409   -0.8009    0.0000 C   0  0  0  0  0  0  0  0  0  0  0  0
   -3.9653   -2.2396    0.0000 C   0  0  0  0  0  0  0  0  0  0  0  0
   -5.4235   -2.5914    0.0000 C   0  0  0  0  0  0  0  0  0  0  0  0
    2.2917    0.6064    0.0000 C   0  0  0  0  0  0  0  0  0  0  0  0
    2.7161    2.0451    0.0000 N   0  0  0  0  0  0  0  0  0  0  0  0
    4.1743    2.3969    0.0000 C   0  0  0  0  0  0  0  0  0  0  0  0
    5.2080    1.3100    0.0000 O   0  0  0  0  0  0  0  0  0  0  0  0
    4.5987    3.8356    0.0000 C   0  0  0  0  0  0  0  0  0  0  0  0
    3.3255   -0.4805    0.0000 C   0  0  0  0  0  0  0  0  0  0  0  0
    4.7836   -0.1287    0.0000 N   0  0  0  0  0  0  0  0  0  0  0  0
    2.9011   -1.9192    0.0000 C   0  0  0  0  0  0  0  0  0  0  0  0
    1.4429   -2.2710    0.0000 C   0  0  0  0  0  0  0  0  0  0  0  0
    1.0185   -3.7098    0.0000 C   0  0  0  0  0  0  0  0  0  0  0  0
   -0.4397   -4.0616    0.0000 O   0  0  0  0  0  0  0  0  0  0  0  0
    2.0522   -4.7967    0.0000 O   0  0  0  0  0  0  0  0  0  0  0  0
  1  2  1  0
  2  3  1  1
  3  4  2  0
  3  5  1  0
  5  6  1  0
  6  7  1  0
  7  8  1  0
  8  9  1  0
  5 10  1  0
 10 11  1  0
 11 12  1  0
 12 13  1  0
  2 14  1  0
 14 15  1  6
 15 16  1  0
 16 17  2  0
 16 18  1  0
 14 19  1  0
 19 20  1  1
 19 21  1  0
 21 22  2  0
 22 23  1  0
 23 24  1  0
 23 25  2  0
 22  1  1  0
M  END
>  <IC50>  (220) 
449987

>  <cmpdNO>  (220) 
233

$$$$

     RDKit          2D

 19 19  0  0  0  0  0  0  0  0999 V2000
   -5.2383   -1.2000    0.0000 O   0  0  0  0  0  0  0  0  0  0  0  0
   -3.7557   -1.4277    0.0000 C   0  0  0  0  0  0  0  0  0  0  0  0
   -3.2115   -2.8255    0.0000 O   0  0  0  0  0  0  0  0  0  0  0  0
   -2.8173   -0.2575    0.0000 C   0  0  0  0  0  0  0  0  0  0  0  0
   -1.3190   -0.3288    0.0000 C   0  0  0  0  0  0  0  0  0  0  0  0
   -0.7881    1.0741    0.0000 N   0  0  0  0  0  0  0  0  0  0  0  0
   -1.9583    2.0125    0.0000 C   0  0  0  0  0  0  0  0  0  0  0  0
   -3.2124    1.1896    0.0000 C   0  0  0  0  0  0  0  0  0  0  0  0
   -4.6153    1.7205    0.0000 N   0  0  0  0  0  0  0  0  0  0  0  0
    0.6589    1.4692    0.0000 C   0  0  0  0  0  0  0  0  0  0  0  0
    1.0403    2.9199    0.0000 O   0  0  0  0  0  0  0  0  0  0  0  0
    1.7246    0.4136    0.0000 N   0  0  0  0  0  0  0  0  0  0  0  0
    1.3433   -1.0372    0.0000 C   0  0  0  0  0  0  0  0  0  0  0  0
    2.4090   -2.0928    0.0000 C   0  0  0  0  0  0  0  0  0  0  0  0
   -0.1037   -1.4323    0.0000 C   0  0  0  0  0  0  0  0  0  0  0  0
    3.1717    0.8087    0.0000 C   0  0  0  0  0  0  0  0  0  0  0  0
    4.2373   -0.2469    0.0000 C   0  0  0  0  0  0  0  0  0  0  0  0
    5.6844    0.1482    0.0000 C   0  0  0  0  0  0  0  0  0  0  0  0
    6.7501   -0.9074    0.0000 O   0  0  0  0  0  0  0  0  0  0  0  0
  1  2  1  0
  2  3  2  0
  4  2  1  6
  4  5  1  0
  5  6  1  0
  6  7  1  0
  7  8  1  0
  8  9  1  6
  6 10  1  0
 10 11  2  0
 10 12  1  0
 12 13  1  0
 13 14  1  0
 13 15  1  0
 12 16  1  0
 16 17  1  0
 17 18  1  0
 18 19  1  0
  8  4  1  0
M  END
>  <IC50>  (221) 
2099910

>  <cmpdNO>  (221) 
234

$$$$

     RDKit          2D

 21 21  0  0  0  0  0  0  0  0999 V2000
    0.9919    0.5811    0.0000 O   0  0  0  0  0  0  0  0  0  0  0  0
   -0.0507   -0.4974    0.0000 C   0  0  0  0  0  0  0  0  0  0  0  0
    0.3621   -1.9395    0.0000 C   0  0  0  0  0  0  0  0  0  0  0  0
   -0.6804   -3.0180    0.0000 O   0  0  0  0  0  0  0  0  0  0  0  0
    1.8174   -2.3031    0.0000 N   0  0  0  0  0  0  0  0  0  0  0  0
    2.8599   -1.2246    0.0000 C   0  0  0  0  0  0  0  0  0  0  0  0
    4.3152   -1.5882    0.0000 C   0  0  0  0  0  0  0  0  0  0  0  0
    5.3577   -0.5097    0.0000 C   0  0  0  0  0  0  0  0  0  0  0  0
    2.2301   -3.7452    0.0000 C   0  0  0  0  0  0  0  0  0  0  0  0
   -1.5059   -0.1338    0.0000 C   0  0  0  0  0  0  0  0  0  0  0  0
   -2.5484   -1.2124    0.0000 N   0  0  0  0  0  0  0  0  0  0  0  0
   -4.0037   -0.8488    0.0000 C   0  0  0  0  0  0  0  0  0  0  0  0
   -4.4165    0.5933    0.0000 O   0  0  0  0  0  0  0  0  0  0  0  0
   -5.0462   -1.9273    0.0000 C   0  0  0  0  0  0  0  0  0  0  0  0
   -1.9187    1.3082    0.0000 C   0  0  0  0  0  0  0  0  0  0  0  0
   -3.3740    1.6718    0.0000 N   0  0  0  0  0  0  0  0  0  0  0  0
   -0.8762    2.3868    0.0000 C   0  0  0  0  0  0  0  0  0  0  0  0
    0.5791    2.0232    0.0000 C   0  0  0  0  0  0  0  0  0  0  0  0
    1.6216    3.1017    0.0000 C   0  0  0  0  0  0  0  0  0  0  0  0
    3.0769    2.7381    0.0000 O   0  0  0  0  0  0  0  0  0  0  0  0
    1.2088    4.5438    0.0000 O   0  0  0  0  0  0  0  0  0  0  0  0
  1  2  1  0
  2  3  1  1
  3  4  2  0
  3  5  1  0
  5  6  1  0
  6  7  1  0
  7  8  1  0
  5  9  1  0
  2 10  1  0
 10 11  1  6
 11 12  1  0
 12 13  2  0
 12 14  1  0
 10 15  1  0
 15 16  1  1
 15 17  1  0
 17 18  2  0
 18 19  1  0
 19 20  1  0
 19 21  2  0
 18  1  1  0
M  END
>  <IC50>  (222) 
180011

>  <cmpdNO>  (222) 
235

$$$$

     RDKit          2D

 20 20  0  0  0  0  0  0  0  0999 V2000
    1.5431    0.1435    0.0000 O   0  0  0  0  0  0  0  0  0  0  0  0
    2.0745   -1.2593    0.0000 C   0  0  0  0  0  0  0  0  0  0  0  0
    3.5550   -1.5004    0.0000 C   0  0  0  0  0  0  0  0  0  0  0  0
    4.0864   -2.9032    0.0000 C   0  0  0  0  0  0  0  0  0  0  0  0
    1.1254   -2.4208    0.0000 C   0  0  0  0  0  0  0  0  0  0  0  0
    1.6568   -3.8235    0.0000 C   0  0  0  0  0  0  0  0  0  0  0  0
    0.0627    0.3846    0.0000 C   0  0  0  0  0  0  0  0  0  0  0  0
   -0.8864   -0.7769    0.0000 C   0  0  0  0  0  0  0  0  0  0  0  0
   -2.3669   -0.5357    0.0000 C   0  0  0  0  0  0  0  0  0  0  0  0
   -2.8983    0.8670    0.0000 C   0  0  0  0  0  0  0  0  0  0  0  0
   -1.9492    2.0285    0.0000 C   0  0  0  0  0  0  0  0  0  0  0  0
   -2.4806    3.4313    0.0000 N   0  0  0  0  0  0  0  0  0  0  0  0
   -0.4687    1.7874    0.0000 C   0  0  0  0  0  0  0  0  0  0  0  0
    0.4804    2.9489    0.0000 N   0  0  0  0  0  0  0  0  0  0  0  0
    1.9609    2.7077    0.0000 C   0  0  0  0  0  0  0  0  0  0  0  0
    2.4923    1.3050    0.0000 O   0  0  0  0  0  0  0  0  0  0  0  0
    2.9100    3.8693    0.0000 C   0  0  0  0  0  0  0  0  0  0  0  0
   -3.3160   -1.6973    0.0000 C   0  0  0  0  0  0  0  0  0  0  0  0
   -4.7965   -1.4561    0.0000 O   0  0  0  0  0  0  0  0  0  0  0  0
   -2.7847   -3.1000    0.0000 O   0  0  0  0  0  0  0  0  0  0  0  0
  2  1  1  1
  2  3  1  0
  3  4  1  0
  2  5  1  0
  5  6  2  0
  7  1  1  6
  7  8  1  0
  8  9  2  0
  9 10  1  0
 10 11  1  0
 11 12  1  6
 11 13  1  0
 13 14  1  1
 14 15  1  0
 15 16  2  0
 15 17  1  0
  9 18  1  0
 18 19  1  0
 18 20  2  0
 13  7  1  0
M  END
>  <IC50>  (223) 
1000

>  <cmpdNO>  (223) 
236

$$$$

     RDKit          2D

 25 26  0  0  0  0  0  0  0  0999 V2000
    0.7531    0.5675    0.0000 O   0  0  0  0  0  0  0  0  0  0  0  0
    1.1587    2.0116    0.0000 C   0  0  0  0  0  0  0  0  0  0  0  0
    2.6122    2.3824    0.0000 C   0  0  0  0  0  0  0  0  0  0  0  0
    3.6600    1.3090    0.0000 C   0  0  0  0  0  0  0  0  0  0  0  0
    5.1135    1.6798    0.0000 C   0  0  0  0  0  0  0  0  0  0  0  0
    6.1613    0.6065    0.0000 C   0  0  0  0  0  0  0  0  0  0  0  0
    5.7557   -0.8376    0.0000 C   0  0  0  0  0  0  0  0  0  0  0  0
    4.3022   -1.2084    0.0000 C   0  0  0  0  0  0  0  0  0  0  0  0
    3.2544   -0.1351    0.0000 C   0  0  0  0  0  0  0  0  0  0  0  0
    0.1109    3.0849    0.0000 C   0  0  0  0  0  0  0  0  0  0  0  0
   -1.3426    2.7142    0.0000 C   0  0  0  0  0  0  0  0  0  0  0  0
   -0.7004    0.1967    0.0000 C   0  0  0  0  0  0  0  0  0  0  0  0
   -1.7482    1.2701    0.0000 C   0  0  0  0  0  0  0  0  0  0  0  0
   -3.2016    0.8993    0.0000 C   0  0  0  0  0  0  0  0  0  0  0  0
   -3.6073   -0.5448    0.0000 C   0  0  0  0  0  0  0  0  0  0  0  0
   -2.5594   -1.6182    0.0000 C   0  0  0  0  0  0  0  0  0  0  0  0
   -2.9651   -3.0623    0.0000 N   0  0  0  0  0  0  0  0  0  0  0  0
   -1.1060   -1.2474    0.0000 C   0  0  0  0  0  0  0  0  0  0  0  0
   -0.0582   -2.3207    0.0000 N   0  0  0  0  0  0  0  0  0  0  0  0
   -0.4638   -3.7649    0.0000 C   0  0  0  0  0  0  0  0  0  0  0  0
   -1.9172   -4.1356    0.0000 O   0  0  0  0  0  0  0  0  0  0  0  0
    0.5840   -4.8382    0.0000 C   0  0  0  0  0  0  0  0  0  0  0  0
   -4.2495    1.9726    0.0000 C   0  0  0  0  0  0  0  0  0  0  0  0
   -3.8438    3.4167    0.0000 O   0  0  0  0  0  0  0  0  0  0  0  0
   -5.7029    1.6018    0.0000 O   0  0  0  0  0  0  0  0  0  0  0  0
  2  1  1  1
  2  3  1  0
  3  4  1  0
  4  5  2  0
  5  6  1  0
  6  7  2  0
  7  8  1  0
  8  9  2  0
  2 10  1  0
 10 11  1  0
 12  1  1  1
 12 13  1  0
 13 14  2  0
 14 15  1  0
 15 16  1  0
 16 17  1  1
 16 18  1  0
 18 19  1  6
 19 20  1  0
 20 21  2  0
 20 22  1  0
 14 23  1  0
 23 24  1  0
 23 25  2  0
  9  4  1  0
 18 12  1  0
M  END
>  <IC50>  (224) 
300

>  <cmpdNO>  (224) 
237

$$$$

     RDKit          2D

 19 19  0  0  0  0  0  0  0  0999 V2000
    1.5363   -0.8552    0.0000 O   0  0  0  0  0  0  0  0  0  0  0  0
    1.3262   -2.3404    0.0000 C   0  0  0  0  0  0  0  0  0  0  0  0
   -0.0651   -2.9011    0.0000 C   0  0  0  0  0  0  0  0  0  0  0  0
   -0.2752   -4.3863    0.0000 C   0  0  0  0  0  0  0  0  0  0  0  0
    2.5074   -3.2649    0.0000 C   0  0  0  0  0  0  0  0  0  0  0  0
    0.3551    0.0694    0.0000 C   0  0  0  0  0  0  0  0  0  0  0  0
   -1.0362   -0.4913    0.0000 C   0  0  0  0  0  0  0  0  0  0  0  0
   -2.2174    0.4333    0.0000 C   0  0  0  0  0  0  0  0  0  0  0  0
   -2.0073    1.9185    0.0000 C   0  0  0  0  0  0  0  0  0  0  0  0
   -0.6160    2.4791    0.0000 C   0  0  0  0  0  0  0  0  0  0  0  0
   -0.4060    3.9644    0.0000 N   0  0  0  0  0  0  0  0  0  0  0  0
    0.5652    1.5546    0.0000 C   0  0  0  0  0  0  0  0  0  0  0  0
    1.9564    2.1153    0.0000 N   0  0  0  0  0  0  0  0  0  0  0  0
    3.1376    1.1907    0.0000 C   0  0  0  0  0  0  0  0  0  0  0  0
    2.9275   -0.2945    0.0000 O   0  0  0  0  0  0  0  0  0  0  0  0
    4.5289    1.7514    0.0000 C   0  0  0  0  0  0  0  0  0  0  0  0
   -3.6087   -0.1274    0.0000 C   0  0  0  0  0  0  0  0  0  0  0  0
   -4.7899    0.7971    0.0000 O   0  0  0  0  0  0  0  0  0  0  0  0
   -3.8188   -1.6126    0.0000 O   0  0  0  0  0  0  0  0  0  0  0  0
  1  2  1  0
  2  3  1  0
  3  4  1  0
  2  5  1  0
  6  1  1  6
  6  7  1  0
  7  8  2  0
  8  9  1  0
  9 10  1  0
 10 11  1  6
 10 12  1  0
 12 13  1  1
 13 14  1  0
 14 15  2  0
 14 16  1  0
  8 17  1  0
 17 18  1  0
 17 19  2  0
 12  6  1  0
M  END
>  <IC50>  (225) 
10000

>  <cmpdNO>  (225) 
238

$$$$

     RDKit          2D

 26 26  0  0  0  0  0  0  0  0999 V2000
   -0.6414   -1.0907    0.0000 O   0  0  0  0  0  0  0  0  0  0  0  0
   -0.3902    0.3881    0.0000 C   0  0  0  0  0  0  0  0  0  0  0  0
   -1.5453    1.3450    0.0000 C   0  0  0  0  0  0  0  0  0  0  0  0
   -1.2941    2.8239    0.0000 O   0  0  0  0  0  0  0  0  0  0  0  0
   -2.9516    0.8232    0.0000 N   0  0  0  0  0  0  0  0  0  0  0  0
   -4.1067    1.7801    0.0000 C   0  0  0  0  0  0  0  0  0  0  0  0
   -5.5130    1.2582    0.0000 C   0  0  0  0  0  0  0  0  0  0  0  0
   -6.6681    2.2151    0.0000 C   0  0  0  0  0  0  0  0  0  0  0  0
   -3.2027   -0.6557    0.0000 C   0  0  0  0  0  0  0  0  0  0  0  0
   -4.6090   -1.1776    0.0000 C   0  0  0  0  0  0  0  0  0  0  0  0
   -4.8602   -2.6564    0.0000 C   0  0  0  0  0  0  0  0  0  0  0  0
    1.0161    0.9100    0.0000 C   0  0  0  0  0  0  0  0  0  0  0  0
    1.2673    2.3888    0.0000 N   0  0  0  0  0  0  0  0  0  0  0  0
    2.6735    2.9107    0.0000 C   0  0  0  0  0  0  0  0  0  0  0  0
    3.8287    1.9538    0.0000 O   0  0  0  0  0  0  0  0  0  0  0  0
    2.9247    4.3896    0.0000 C   0  0  0  0  0  0  0  0  0  0  0  0
    2.1712   -0.0469    0.0000 C   0  0  0  0  0  0  0  0  0  0  0  0
    3.5775    0.4750    0.0000 N   0  0  0  0  0  0  0  0  0  0  0  0
    4.7326   -0.4819    0.0000 C   0  0  0  0  0  0  0  0  0  0  0  0
    6.1389    0.0400    0.0000 N   0  0  0  0  0  0  0  0  0  0  0  0
    4.4814   -1.9608    0.0000 N   0  0  0  0  0  0  0  0  0  0  0  0
    1.9200   -1.5257    0.0000 C   0  0  0  0  0  0  0  0  0  0  0  0
    0.5138   -2.0476    0.0000 C   0  0  0  0  0  0  0  0  0  0  0  0
    0.2626   -3.5265    0.0000 C   0  0  0  0  0  0  0  0  0  0  0  0
   -1.1437   -4.0483    0.0000 O   0  0  0  0  0  0  0  0  0  0  0  0
    1.4177   -4.4834    0.0000 O   0  0  0  0  0  0  0  0  0  0  0  0
  1  2  1  0
  2  3  1  1
  3  4  2  0
  3  5  1  0
  5  6  1  0
  6  7  1  0
  7  8  1  0
  5  9  1  0
  9 10  1  0
 10 11  1  0
  2 12  1  0
 12 13  1  6
 13 14  1  0
 14 15  2  0
 14 16  1  0
 12 17  1  0
 17 18  1  1
 18 19  1  0
 19 20  1  0
 19 21  2  0
 17 22  1  0
 22 23  2  0
 23 24  1  0
 24 25  1  0
 24 26  2  0
 23  1  1  0
M  END
>  <IC50>  (226) 
1999.9

>  <cmpdNO>  (226) 
239

$$$$

     RDKit          2D

 21 21  0  0  0  0  0  0  0  0999 V2000
   -0.8080   -1.0302    0.0000 O   0  0  0  0  0  0  0  0  0  0  0  0
   -0.1221    0.3037    0.0000 C   0  0  0  0  0  0  0  0  0  0  0  0
   -0.9343    1.5648    0.0000 C   0  0  0  0  0  0  0  0  0  0  0  0
   -0.2484    2.8987    0.0000 O   0  0  0  0  0  0  0  0  0  0  0  0
   -2.4325    1.4918    0.0000 N   0  0  0  0  0  0  0  0  0  0  0  0
   -3.2448    2.7529    0.0000 C   0  0  0  0  0  0  0  0  0  0  0  0
   -4.7430    2.6799    0.0000 C   0  0  0  0  0  0  0  0  0  0  0  0
   -3.1185    0.1579    0.0000 C   0  0  0  0  0  0  0  0  0  0  0  0
   -4.6167    0.0849    0.0000 C   0  0  0  0  0  0  0  0  0  0  0  0
    1.3762    0.3766    0.0000 C   0  0  0  0  0  0  0  0  0  0  0  0
    2.0621    1.7106    0.0000 N   0  0  0  0  0  0  0  0  0  0  0  0
    3.5604    1.7835    0.0000 C   0  0  0  0  0  0  0  0  0  0  0  0
    4.3726    0.5225    0.0000 O   0  0  0  0  0  0  0  0  0  0  0  0
    4.2463    3.1175    0.0000 C   0  0  0  0  0  0  0  0  0  0  0  0
    2.1884   -0.8844    0.0000 C   0  0  0  0  0  0  0  0  0  0  0  0
    3.6867   -0.8115    0.0000 N   0  0  0  0  0  0  0  0  0  0  0  0
    1.5025   -2.2184    0.0000 C   0  0  0  0  0  0  0  0  0  0  0  0
    0.0043   -2.2913    0.0000 C   0  0  0  0  0  0  0  0  0  0  0  0
   -0.6817   -3.6252    0.0000 C   0  0  0  0  0  0  0  0  0  0  0  0
   -2.1799   -3.6982    0.0000 O   0  0  0  0  0  0  0  0  0  0  0  0
    0.1306   -4.8863    0.0000 O   0  0  0  0  0  0  0  0  0  0  0  0
  1  2  1  0
  2  3  1  1
  3  4  2  0
  3  5  1  0
  5  6  1  0
  6  7  1  0
  5  8  1  0
  8  9  1  0
  2 10  1  0
 10 11  1  6
 11 12  1  0
 12 13  2  0
 12 14  1  0
 10 15  1  0
 15 16  1  1
 15 17  1  0
 17 18  2  0
 18 19  1  0
 19 20  1  0
 19 21  2  0
 18  1  1  0
M  END
>  <IC50>  (227) 
2999.9

>  <cmpdNO>  (227) 
240

$$$$

     RDKit          2D

 23 23  0  0  0  0  0  0  0  0999 V2000
   -1.1072   -1.3878    0.0000 O   0  0  0  0  0  0  0  0  0  0  0  0
   -2.6068   -1.3545    0.0000 C   0  0  0  0  0  0  0  0  0  0  0  0
   -3.3854   -2.6366    0.0000 C   0  0  0  0  0  0  0  0  0  0  0  0
   -4.8851   -2.6033    0.0000 C   0  0  0  0  0  0  0  0  0  0  0  0
   -3.3278   -0.0391    0.0000 C   0  0  0  0  0  0  0  0  0  0  0  0
   -4.8274   -0.0058    0.0000 C   0  0  0  0  0  0  0  0  0  0  0  0
   -0.3285   -0.1057    0.0000 C   0  0  0  0  0  0  0  0  0  0  0  0
   -1.0495    1.2097    0.0000 C   0  0  0  0  0  0  0  0  0  0  0  0
   -0.2709    2.4917    0.0000 C   0  0  0  0  0  0  0  0  0  0  0  0
    1.2288    2.4585    0.0000 C   0  0  0  0  0  0  0  0  0  0  0  0
    1.9498    1.1431    0.0000 C   0  0  0  0  0  0  0  0  0  0  0  0
    3.4494    1.1098    0.0000 N   0  0  0  0  0  0  0  0  0  0  0  0
    4.1704   -0.2055    0.0000 C   0  0  0  0  0  0  0  0  0  0  0  0
    5.6700   -0.2388    0.0000 N   0  0  0  0  0  0  0  0  0  0  0  0
    3.3917   -1.4876    0.0000 N   0  0  0  0  0  0  0  0  0  0  0  0
    1.1711   -0.1390    0.0000 C   0  0  0  0  0  0  0  0  0  0  0  0
    1.8921   -1.4543    0.0000 N   0  0  0  0  0  0  0  0  0  0  0  0
    1.1135   -2.7364    0.0000 C   0  0  0  0  0  0  0  0  0  0  0  0
   -0.3862   -2.7031    0.0000 O   0  0  0  0  0  0  0  0  0  0  0  0
    1.8345   -4.0518    0.0000 C   0  0  0  0  0  0  0  0  0  0  0  0
   -0.9919    3.8071    0.0000 C   0  0  0  0  0  0  0  0  0  0  0  0
   -0.2132    5.0892    0.0000 O   0  0  0  0  0  0  0  0  0  0  0  0
   -2.4915    3.8404    0.0000 O   0  0  0  0  0  0  0  0  0  0  0  0
  1  2  1  0
  2  3  1  0
  3  4  1  0
  2  5  1  0
  5  6  1  0
  7  1  1  6
  7  8  1  0
  8  9  2  0
  9 10  1  0
 10 11  1  0
 11 12  1  6
 12 13  1  0
 13 14  1  0
 13 15  2  0
 11 16  1  0
 16 17  1  1
 17 18  1  0
 18 19  2  0
 18 20  1  0
  9 21  1  0
 21 22  1  0
 21 23  2  0
 16  7  1  0
M  END
>  <IC50>  (228) 
500

>  <cmpdNO>  (228) 
242

$$$$

     RDKit          2D

 24 24  0  0  0  0  0  0  0  0999 V2000
   -1.1384   -1.0919    0.0000 O   0  0  0  0  0  0  0  0  0  0  0  0
   -0.8648    0.3829    0.0000 C   0  0  0  0  0  0  0  0  0  0  0  0
   -2.0052    1.3573    0.0000 C   0  0  0  0  0  0  0  0  0  0  0  0
   -1.7316    2.8321    0.0000 O   0  0  0  0  0  0  0  0  0  0  0  0
   -3.4193    0.8568    0.0000 N   0  0  0  0  0  0  0  0  0  0  0  0
   -4.5597    1.8312    0.0000 C   0  0  0  0  0  0  0  0  0  0  0  0
   -5.9738    1.3308    0.0000 C   0  0  0  0  0  0  0  0  0  0  0  0
   -3.6929   -0.6180    0.0000 C   0  0  0  0  0  0  0  0  0  0  0  0
   -5.1070   -1.1184    0.0000 C   0  0  0  0  0  0  0  0  0  0  0  0
    0.5492    0.8834    0.0000 C   0  0  0  0  0  0  0  0  0  0  0  0
    0.8229    2.3582    0.0000 N   0  0  0  0  0  0  0  0  0  0  0  0
    2.2369    2.8587    0.0000 C   0  0  0  0  0  0  0  0  0  0  0  0
    3.3773    1.8843    0.0000 O   0  0  0  0  0  0  0  0  0  0  0  0
    2.5105    4.3335    0.0000 C   0  0  0  0  0  0  0  0  0  0  0  0
    1.6897   -0.0910    0.0000 C   0  0  0  0  0  0  0  0  0  0  0  0
    3.1037    0.4095    0.0000 N   0  0  0  0  0  0  0  0  0  0  0  0
    4.2442   -0.5649    0.0000 C   0  0  0  0  0  0  0  0  0  0  0  0
    5.6582   -0.0645    0.0000 N   0  0  0  0  0  0  0  0  0  0  0  0
    3.9705   -2.0397    0.0000 N   0  0  0  0  0  0  0  0  0  0  0  0
    1.4161   -1.5658    0.0000 C   0  0  0  0  0  0  0  0  0  0  0  0
    0.0020   -2.0663    0.0000 C   0  0  0  0  0  0  0  0  0  0  0  0
   -0.2716   -3.5411    0.0000 C   0  0  0  0  0  0  0  0  0  0  0  0
   -1.6857   -4.0416    0.0000 O   0  0  0  0  0  0  0  0  0  0  0  0
    0.8688   -4.5155    0.0000 O   0  0  0  0  0  0  0  0  0  0  0  0
  1  2  1  0
  2  3  1  1
  3  4  2  0
  3  5  1  0
  5  6  1  0
  6  7  1  0
  5  8  1  0
  8  9  1  0
  2 10  1  0
 10 11  1  6
 11 12  1  0
 12 13  2  0
 12 14  1  0
 10 15  1  0
 15 16  1  1
 16 17  1  0
 17 18  1  0
 17 19  2  0
 15 20  1  0
 20 21  2  0
 21 22  1  0
 22 23  1  0
 22 24  2  0
 21  1  1  0
M  END
>  <IC50>  (229) 
1000

>  <cmpdNO>  (229) 
243

$$$$

     RDKit          2D

 22 22  0  0  0  0  0  0  0  0999 V2000
   -0.7353   -1.8694    0.0000 O   0  0  0  0  0  0  0  0  0  0  0  0
   -2.1562   -2.3499    0.0000 C   0  0  0  0  0  0  0  0  0  0  0  0
   -3.2829   -1.3597    0.0000 C   0  0  0  0  0  0  0  0  0  0  0  0
   -4.7038   -1.8403    0.0000 C   0  0  0  0  0  0  0  0  0  0  0  0
   -2.4505   -3.8208    0.0000 C   0  0  0  0  0  0  0  0  0  0  0  0
   -0.4410   -0.3985    0.0000 C   0  0  0  0  0  0  0  0  0  0  0  0
   -1.5677    0.5918    0.0000 C   0  0  0  0  0  0  0  0  0  0  0  0
   -1.2734    2.0626    0.0000 C   0  0  0  0  0  0  0  0  0  0  0  0
    0.1475    2.5432    0.0000 C   0  0  0  0  0  0  0  0  0  0  0  0
    1.2742    1.5529    0.0000 C   0  0  0  0  0  0  0  0  0  0  0  0
    2.6951    2.0335    0.0000 N   0  0  0  0  0  0  0  0  0  0  0  0
    3.8218    1.0433    0.0000 C   0  0  0  0  0  0  0  0  0  0  0  0
    5.2427    1.5239    0.0000 N   0  0  0  0  0  0  0  0  0  0  0  0
    3.5275   -0.4276    0.0000 N   0  0  0  0  0  0  0  0  0  0  0  0
    0.9799    0.0821    0.0000 C   0  0  0  0  0  0  0  0  0  0  0  0
    2.1066   -0.9082    0.0000 N   0  0  0  0  0  0  0  0  0  0  0  0
    1.8123   -2.3790    0.0000 C   0  0  0  0  0  0  0  0  0  0  0  0
    0.3914   -2.8596    0.0000 O   0  0  0  0  0  0  0  0  0  0  0  0
    2.9390   -3.3693    0.0000 C   0  0  0  0  0  0  0  0  0  0  0  0
   -2.4001    3.0529    0.0000 C   0  0  0  0  0  0  0  0  0  0  0  0
   -2.1058    4.5237    0.0000 O   0  0  0  0  0  0  0  0  0  0  0  0
   -3.8210    2.5723    0.0000 O   0  0  0  0  0  0  0  0  0  0  0  0
  1  2  1  0
  2  3  1  0
  3  4  1  0
  2  5  1  0
  6  1  1  6
  6  7  1  0
  7  8  2  0
  8  9  1  0
  9 10  1  0
 10 11  1  6
 11 12  1  0
 12 13  1  0
 12 14  2  0
 10 15  1  0
 15 16  1  1
 16 17  1  0
 17 18  2  0
 17 19  1  0
  8 20  1  0
 20 21  1  0
 20 22  2  0
 15  6  1  0
M  END
>  <IC50>  (230) 
500

>  <cmpdNO>  (230) 
244

$$$$

     RDKit          2D

 23 23  0  0  0  0  0  0  0  0999 V2000
   -0.1455   -1.1866    0.0000 O   0  0  0  0  0  0  0  0  0  0  0  0
    0.3152    0.2409    0.0000 C   0  0  0  0  0  0  0  0  0  0  0  0
   -0.6908    1.3537    0.0000 C   0  0  0  0  0  0  0  0  0  0  0  0
   -0.2301    2.7812    0.0000 O   0  0  0  0  0  0  0  0  0  0  0  0
   -2.1574    1.0389    0.0000 N   0  0  0  0  0  0  0  0  0  0  0  0
   -3.1633    2.1516    0.0000 C   0  0  0  0  0  0  0  0  0  0  0  0
   -4.6299    1.8368    0.0000 C   0  0  0  0  0  0  0  0  0  0  0  0
   -5.6358    2.9496    0.0000 C   0  0  0  0  0  0  0  0  0  0  0  0
   -2.6180   -0.3886    0.0000 C   0  0  0  0  0  0  0  0  0  0  0  0
   -4.0846   -0.7034    0.0000 C   0  0  0  0  0  0  0  0  0  0  0  0
   -4.5453   -2.1309    0.0000 C   0  0  0  0  0  0  0  0  0  0  0  0
    1.7818    0.5557    0.0000 C   0  0  0  0  0  0  0  0  0  0  0  0
    2.2424    1.9832    0.0000 N   0  0  0  0  0  0  0  0  0  0  0  0
    3.7090    2.2980    0.0000 C   0  0  0  0  0  0  0  0  0  0  0  0
    4.7149    1.1853    0.0000 O   0  0  0  0  0  0  0  0  0  0  0  0
    4.1697    3.7255    0.0000 C   0  0  0  0  0  0  0  0  0  0  0  0
    2.7877   -0.5570    0.0000 C   0  0  0  0  0  0  0  0  0  0  0  0
    4.2543   -0.2422    0.0000 N   0  0  0  0  0  0  0  0  0  0  0  0
    2.3270   -1.9845    0.0000 C   0  0  0  0  0  0  0  0  0  0  0  0
    0.8604   -2.2993    0.0000 C   0  0  0  0  0  0  0  0  0  0  0  0
    0.3997   -3.7268    0.0000 C   0  0  0  0  0  0  0  0  0  0  0  0
   -1.0669   -4.0416    0.0000 O   0  0  0  0  0  0  0  0  0  0  0  0
    1.4056   -4.8395    0.0000 O   0  0  0  0  0  0  0  0  0  0  0  0
  1  2  1  0
  2  3  1  1
  3  4  2  0
  3  5  1  0
  5  6  1  0
  6  7  1  0
  7  8  1  0
  5  9  1  0
  9 10  1  0
 10 11  1  0
  2 12  1  0
 12 13  1  6
 13 14  1  0
 14 15  2  0
 14 16  1  0
 12 17  1  0
 17 18  1  1
 17 19  1  0
 19 20  2  0
 20 21  1  0
 21 22  1  0
 21 23  2  0
 20  1  1  0
M  END
>  <IC50>  (231) 
12000.5

>  <cmpdNO>  (231) 
245

$$$$

     RDKit          2D

 20 20  0  0  0  0  0  0  0  0999 V2000
    1.5431    0.1435    0.0000 O   0  0  0  0  0  0  0  0  0  0  0  0
    2.0745   -1.2593    0.0000 C   0  0  0  0  0  0  0  0  0  0  0  0
    3.5550   -1.5004    0.0000 C   0  0  0  0  0  0  0  0  0  0  0  0
    4.0864   -2.9032    0.0000 C   0  0  0  0  0  0  0  0  0  0  0  0
    1.1254   -2.4208    0.0000 C   0  0  0  0  0  0  0  0  0  0  0  0
    1.6568   -3.8235    0.0000 C   0  0  0  0  0  0  0  0  0  0  0  0
    0.0627    0.3846    0.0000 C   0  0  0  0  0  0  0  0  0  0  0  0
   -0.8864   -0.7769    0.0000 C   0  0  0  0  0  0  0  0  0  0  0  0
   -2.3669   -0.5357    0.0000 C   0  0  0  0  0  0  0  0  0  0  0  0
   -2.8983    0.8670    0.0000 C   0  0  0  0  0  0  0  0  0  0  0  0
   -1.9492    2.0285    0.0000 C   0  0  0  0  0  0  0  0  0  0  0  0
   -2.4806    3.4313    0.0000 N   0  0  0  0  0  0  0  0  0  0  0  0
   -0.4687    1.7874    0.0000 C   0  0  0  0  0  0  0  0  0  0  0  0
    0.4804    2.9489    0.0000 N   0  0  0  0  0  0  0  0  0  0  0  0
    1.9609    2.7077    0.0000 C   0  0  0  0  0  0  0  0  0  0  0  0
    2.4923    1.3050    0.0000 O   0  0  0  0  0  0  0  0  0  0  0  0
    2.9100    3.8693    0.0000 C   0  0  0  0  0  0  0  0  0  0  0  0
   -3.3160   -1.6973    0.0000 C   0  0  0  0  0  0  0  0  0  0  0  0
   -4.7965   -1.4561    0.0000 O   0  0  0  0  0  0  0  0  0  0  0  0
   -2.7847   -3.1000    0.0000 O   0  0  0  0  0  0  0  0  0  0  0  0
  1  2  1  0
  2  3  1  0
  3  4  1  0
  2  5  1  0
  5  6  1  0
  7  1  1  6
  7  8  1  0
  8  9  2  0
  9 10  1  0
 10 11  1  0
 11 12  1  6
 11 13  1  0
 13 14  1  1
 14 15  1  0
 15 16  2  0
 15 17  1  0
  9 18  1  0
 18 19  1  0
 18 20  2  0
 13  7  1  0
M  END
>  <IC50>  (232) 
1000

>  <cmpdNO>  (232) 
246

$$$$

     RDKit          2D

 23 23  0  0  0  0  0  0  0  0999 V2000
   -0.1277   -2.7329    0.0000 O   0  0  0  0  0  0  0  0  0  0  0  0
   -0.8811   -1.4359    0.0000 C   0  0  0  0  0  0  0  0  0  0  0  0
   -0.2747   -0.0639    0.0000 C   0  0  0  0  0  0  0  0  0  0  0  0
    1.1917    0.2518    0.0000 C   0  0  0  0  0  0  0  0  0  0  0  0
    1.6514    1.6797    0.0000 N   0  0  0  0  0  0  0  0  0  0  0  0
    3.1178    1.9954    0.0000 C   0  0  0  0  0  0  0  0  0  0  0  0
    4.1245    0.8834    0.0000 O   0  0  0  0  0  0  0  0  0  0  0  0
    3.5775    3.4232    0.0000 C   0  0  0  0  0  0  0  0  0  0  0  0
    2.1984   -0.8602    0.0000 C   0  0  0  0  0  0  0  0  0  0  0  0
    3.6647   -0.5444    0.0000 C   0  0  0  0  0  0  0  0  0  0  0  0
    4.6714   -1.6565    0.0000 C   0  0  0  0  0  0  0  0  0  0  0  0
    1.7386   -2.2880    0.0000 C   0  0  0  0  0  0  0  0  0  0  0  0
    2.7453   -3.4000    0.0000 C   0  0  0  0  0  0  0  0  0  0  0  0
   -1.3921    0.9368    0.0000 C   0  0  0  0  0  0  0  0  0  0  0  0
   -1.2392    2.4290    0.0000 N   0  0  0  0  0  0  0  0  0  0  0  0
   -2.4551    3.3074    0.0000 C   0  0  0  0  0  0  0  0  0  0  0  0
   -2.3023    4.7996    0.0000 N   0  0  0  0  0  0  0  0  0  0  0  0
   -3.8238    2.6937    0.0000 N   0  0  0  0  0  0  0  0  0  0  0  0
   -2.6891    0.1833    0.0000 C   0  0  0  0  0  0  0  0  0  0  0  0
   -2.3733   -1.2830    0.0000 C   0  0  0  0  0  0  0  0  0  0  0  0
   -3.3741   -2.4004    0.0000 C   0  0  0  0  0  0  0  0  0  0  0  0
   -4.8421   -2.0925    0.0000 O   0  0  0  0  0  0  0  0  0  0  0  0
   -2.9067   -3.8258    0.0000 O   0  0  0  0  0  0  0  0  0  0  0  0
  2  1  1  6
  2  3  1  0
  3  4  1  6
  4  5  1  1
  5  6  1  0
  6  7  2  0
  6  8  1  0
  4  9  1  0
  9 10  1  0
 10 11  1  0
  9 12  1  0
 12 13  1  0
  3 14  1  0
 14 15  1  1
 15 16  1  0
 16 17  1  0
 16 18  2  0
 14 19  1  0
 19 20  1  0
 20 21  1  1
 21 22  1  0
 21 23  2  0
 20  2  1  0
M  END
>  <IC50>  (233) 
10

>  <cmpdNO>  (233) 
247

$$$$

     RDKit          2D

 24 24  0  0  0  0  0  0  0  0999 V2000
   -1.3326   -0.6626    0.0000 O   0  0  0  0  0  0  0  0  0  0  0  0
   -0.7545    0.7215    0.0000 C   0  0  0  0  0  0  0  0  0  0  0  0
   -1.6641    1.9143    0.0000 C   0  0  0  0  0  0  0  0  0  0  0  0
   -1.0859    3.2984    0.0000 O   0  0  0  0  0  0  0  0  0  0  0  0
   -3.1518    1.7229    0.0000 N   0  0  0  0  0  0  0  0  0  0  0  0
   -3.7300    0.3388    0.0000 C   0  0  0  0  0  0  0  0  0  0  0  0
   -5.2177    0.1475    0.0000 C   0  0  0  0  0  0  0  0  0  0  0  0
   -5.7958   -1.2366    0.0000 C   0  0  0  0  0  0  0  0  0  0  0  0
   -4.0614    2.9157    0.0000 C   0  0  0  0  0  0  0  0  0  0  0  0
    0.7333    0.9129    0.0000 C   0  0  0  0  0  0  0  0  0  0  0  0
    1.3114    2.2970    0.0000 N   0  0  0  0  0  0  0  0  0  0  0  0
    2.7992    2.4884    0.0000 C   0  0  0  0  0  0  0  0  0  0  0  0
    3.7088    1.2956    0.0000 O   0  0  0  0  0  0  0  0  0  0  0  0
    3.3773    3.8725    0.0000 C   0  0  0  0  0  0  0  0  0  0  0  0
    1.6429   -0.2798    0.0000 C   0  0  0  0  0  0  0  0  0  0  0  0
    3.1306   -0.0885    0.0000 N   0  0  0  0  0  0  0  0  0  0  0  0
    4.0402   -1.2812    0.0000 C   0  0  0  0  0  0  0  0  0  0  0  0
    5.5280   -1.0899    0.0000 N   0  0  0  0  0  0  0  0  0  0  0  0
    3.4621   -2.6653    0.0000 N   0  0  0  0  0  0  0  0  0  0  0  0
    1.0647   -1.6639    0.0000 C   0  0  0  0  0  0  0  0  0  0  0  0
   -0.4230   -1.8553    0.0000 C   0  0  0  0  0  0  0  0  0  0  0  0
   -1.0012   -3.2394    0.0000 C   0  0  0  0  0  0  0  0  0  0  0  0
   -2.4889   -3.4308    0.0000 O   0  0  0  0  0  0  0  0  0  0  0  0
   -0.0916   -4.4322    0.0000 O   0  0  0  0  0  0  0  0  0  0  0  0
  1  2  1  0
  2  3  1  1
  3  4  2  0
  3  5  1  0
  5  6  1  0
  6  7  1  0
  7  8  1  0
  5  9  1  0
  2 10  1  0
 10 11  1  6
 11 12  1  0
 12 13  2  0
 12 14  1  0
 10 15  1  0
 15 16  1  1
 16 17  1  0
 17 18  1  0
 17 19  2  0
 15 20  1  0
 20 21  2  0
 21 22  1  0
 22 23  1  0
 22 24  2  0
 21  1  1  0
M  END
>  <IC50>  (234) 
4000.4

>  <cmpdNO>  (234) 
249

$$$$

     RDKit          2D

 34 35  0  0  0  0  0  0  0  0999 V2000
    4.1983    0.4506    0.0000 O   0  0  0  0  0  0  0  0  0  0  0  0
    3.0774   -0.5462    0.0000 C   0  0  0  0  0  0  0  0  0  0  0  0
    3.3803   -2.0153    0.0000 C   0  0  0  0  0  0  0  0  0  0  0  0
    2.7301   -2.7541    0.0000 O   0  0  0  0  0  0  0  0  0  0  0  0
    4.8040   -2.4876    0.0000 C   0  0  0  0  0  0  0  0  0  0  0  0
    5.9248   -1.4907    0.0000 O   0  0  0  0  0  0  0  0  0  0  0  0
    5.1069   -3.9567    0.0000 C   0  0  0  0  0  0  0  0  0  0  0  0
    6.5306   -4.4289    0.0000 O   0  0  0  0  0  0  0  0  0  0  0  0
    1.6537   -0.0740    0.0000 C   0  0  0  0  0  0  0  0  0  0  0  0
    0.5328   -1.0708    0.0000 N   0  0  0  0  0  0  0  0  0  0  0  0
    0.8357   -2.5399    0.0000 C   0  0  0  0  0  0  0  0  0  0  0  0
    1.7251   -2.9613    0.0000 O   0  0  0  0  0  0  0  0  0  0  0  0
   -0.2851   -3.5368    0.0000 C   0  0  0  0  0  0  0  0  0  0  0  0
    1.3508    1.3951    0.0000 C   0  0  0  0  0  0  0  0  0  0  0  0
   -0.0729    1.8674    0.0000 N   0  0  0  0  0  0  0  0  0  0  0  0
   -1.1937    0.8706    0.0000 C   0  0  0  0  0  0  0  0  0  0  0  0
   -2.6175    1.3428    0.0000 C   0  0  0  0  0  0  0  0  0  0  0  0
   -3.7383    0.3460    0.0000 C   0  0  0  0  0  0  0  0  0  0  0  0
   -5.1620    0.8182    0.0000 C   0  0  0  0  0  0  0  0  0  0  0  0
   -5.4649    2.2873    0.0000 O   0  0  0  0  0  0  0  0  0  0  0  0
   -6.2829   -0.1786    0.0000 N   0  0  0  0  0  0  0  0  0  0  0  0
   -5.9800   -1.6477    0.0000 C   0  0  0  0  0  0  0  0  0  0  0  0
   -7.1009   -2.6446    0.0000 C   0  0  0  0  0  0  0  0  0  0  0  0
   -8.5246   -2.1723    0.0000 O   0  0  0  0  0  0  0  0  0  0  0  0
   -8.8274   -0.7032    0.0000 C   0  0  0  0  0  0  0  0  0  0  0  0
   -7.7066    0.2936    0.0000 C   0  0  0  0  0  0  0  0  0  0  0  0
   -0.3758    3.3365    0.0000 C   0  0  0  0  0  0  0  0  0  0  0  0
   -1.7995    3.8088    0.0000 N   0  0  0  0  0  0  0  0  0  0  0  0
    0.7451    4.3334    0.0000 N   0  0  0  0  0  0  0  0  0  0  0  0
    2.4717    2.3920    0.0000 C   0  0  0  0  0  0  0  0  0  0  0  0
    3.8954    1.9197    0.0000 C   0  0  0  0  0  0  0  0  0  0  0  0
    5.0162    2.9166    0.0000 C   0  0  0  0  0  0  0  0  0  0  0  0
    6.4399    2.4443    0.0000 O   0  0  0  0  0  0  0  0  0  0  0  0
    4.7134    4.3857    0.0000 O   0  0  0  0  0  0  0  0  0  0  0  0
  2  1  1  1
  2  3  1  0
  3  4  1  1
  3  5  1  0
  5  6  1  6
  5  7  1  0
  7  8  1  0
  2  9  1  0
  9 10  1  6
 10 11  1  0
 11 12  2  0
 11 13  1  0
  9 14  1  0
 14 15  1  1
 15 16  1  0
 16 17  1  0
 17 18  1  0
 18 19  1  0
 19 20  2  0
 19 21  1  0
 21 22  1  0
 22 23  1  0
 23 24  1  0
 24 25  1  0
 25 26  1  0
 15 27  1  0
 27 28  1  0
 27 29  2  0
 14 30  1  0
 30 31  2  0
 31 32  1  0
 32 33  1  0
 32 34  2  0
 31  1  1  0
 26 21  1  0
M  END
>  <IC50>  (235) 
33.3

>  <cmpdNO>  (235) 
252

$$$$

     RDKit          2D

 25 25  0  0  0  0  0  0  0  0999 V2000
   -2.0454   -1.2937    0.0000 O   0  0  0  0  0  0  0  0  0  0  0  0
   -1.9123    0.2004    0.0000 C   0  0  0  0  0  0  0  0  0  0  0  0
   -3.1397    1.0627    0.0000 C   0  0  0  0  0  0  0  0  0  0  0  0
   -3.0067    2.5568    0.0000 O   0  0  0  0  0  0  0  0  0  0  0  0
   -4.5002    0.4309    0.0000 C   0  0  0  0  0  0  0  0  0  0  0  0
   -4.6332   -1.0632    0.0000 O   0  0  0  0  0  0  0  0  0  0  0  0
   -5.7276    1.2931    0.0000 C   0  0  0  0  0  0  0  0  0  0  0  0
   -7.0880    0.6613    0.0000 O   0  0  0  0  0  0  0  0  0  0  0  0
   -0.5519    0.8322    0.0000 C   0  0  0  0  0  0  0  0  0  0  0  0
   -0.4188    2.3263    0.0000 N   0  0  0  0  0  0  0  0  0  0  0  0
    0.9416    2.9581    0.0000 C   0  0  0  0  0  0  0  0  0  0  0  0
    2.1690    2.0959    0.0000 O   0  0  0  0  0  0  0  0  0  0  0  0
    1.0747    4.4522    0.0000 C   0  0  0  0  0  0  0  0  0  0  0  0
    0.6755   -0.0300    0.0000 C   0  0  0  0  0  0  0  0  0  0  0  0
    2.0359    0.6018    0.0000 N   0  0  0  0  0  0  0  0  0  0  0  0
    3.2633   -0.2605    0.0000 C   0  0  0  0  0  0  0  0  0  0  0  0
    4.6238    0.3713    0.0000 C   0  0  0  0  0  0  0  0  0  0  0  0
    5.8512   -0.4909    0.0000 C   0  0  0  0  0  0  0  0  0  0  0  0
    7.2116    0.1409    0.0000 C   0  0  0  0  0  0  0  0  0  0  0  0
    8.4390   -0.7214    0.0000 N   0  0  0  0  0  0  0  0  0  0  0  0
    0.5424   -1.5241    0.0000 C   0  0  0  0  0  0  0  0  0  0  0  0
   -0.8180   -2.1559    0.0000 C   0  0  0  0  0  0  0  0  0  0  0  0
   -0.9511   -3.6500    0.0000 C   0  0  0  0  0  0  0  0  0  0  0  0
   -2.3115   -4.2818    0.0000 O   0  0  0  0  0  0  0  0  0  0  0  0
    0.2763   -4.5123    0.0000 O   0  0  0  0  0  0  0  0  0  0  0  0
  2  1  1  1
  2  3  1  0
  3  4  1  1
  3  5  1  0
  5  6  1  6
  5  7  1  0
  7  8  1  0
  2  9  1  0
  9 10  1  6
 10 11  1  0
 11 12  2  0
 11 13  1  0
  9 14  1  0
 14 15  1  1
 15 16  1  0
 16 17  1  0
 17 18  1  0
 18 19  1  0
 19 20  1  0
 14 21  1  0
 21 22  2  0
 22 23  1  0
 23 24  1  0
 23 25  2  0
 22  1  1  0
M  END
>  <IC50>  (236) 
200

>  <cmpdNO>  (236) 
253

$$$$

     RDKit          2D

 34 35  0  0  0  0  0  0  0  0999 V2000
    4.1983    0.4506    0.0000 O   0  0  0  0  0  0  0  0  0  0  0  0
    3.0774   -0.5462    0.0000 C   0  0  0  0  0  0  0  0  0  0  0  0
    3.3803   -2.0153    0.0000 C   0  0  0  0  0  0  0  0  0  0  0  0
    2.7301   -2.7541    0.0000 O   0  0  0  0  0  0  0  0  0  0  0  0
    4.8040   -2.4876    0.0000 C   0  0  0  0  0  0  0  0  0  0  0  0
    5.9248   -1.4907    0.0000 O   0  0  0  0  0  0  0  0  0  0  0  0
    5.1069   -3.9567    0.0000 C   0  0  0  0  0  0  0  0  0  0  0  0
    6.5306   -4.4289    0.0000 O   0  0  0  0  0  0  0  0  0  0  0  0
    1.6537   -0.0740    0.0000 C   0  0  0  0  0  0  0  0  0  0  0  0
    0.5328   -1.0708    0.0000 N   0  0  0  0  0  0  0  0  0  0  0  0
    0.8357   -2.5399    0.0000 C   0  0  0  0  0  0  0  0  0  0  0  0
    1.7251   -2.9613    0.0000 O   0  0  0  0  0  0  0  0  0  0  0  0
   -0.2851   -3.5368    0.0000 C   0  0  0  0  0  0  0  0  0  0  0  0
    1.3508    1.3951    0.0000 C   0  0  0  0  0  0  0  0  0  0  0  0
   -0.0729    1.8674    0.0000 N   0  0  0  0  0  0  0  0  0  0  0  0
   -1.1937    0.8706    0.0000 C   0  0  0  0  0  0  0  0  0  0  0  0
   -2.6175    1.3428    0.0000 C   0  0  0  0  0  0  0  0  0  0  0  0
   -3.7383    0.3460    0.0000 C   0  0  0  0  0  0  0  0  0  0  0  0
   -5.1620    0.8182    0.0000 C   0  0  0  0  0  0  0  0  0  0  0  0
   -5.4649    2.2873    0.0000 O   0  0  0  0  0  0  0  0  0  0  0  0
   -6.2829   -0.1786    0.0000 N   0  0  0  0  0  0  0  0  0  0  0  0
   -5.9800   -1.6477    0.0000 C   0  0  0  0  0  0  0  0  0  0  0  0
   -7.1009   -2.6446    0.0000 C   0  0  0  0  0  0  0  0  0  0  0  0
   -8.5246   -2.1723    0.0000 C   0  0  0  0  0  0  0  0  0  0  0  0
   -8.8274   -0.7032    0.0000 C   0  0  0  0  0  0  0  0  0  0  0  0
   -7.7066    0.2936    0.0000 C   0  0  0  0  0  0  0  0  0  0  0  0
   -0.3758    3.3365    0.0000 C   0  0  0  0  0  0  0  0  0  0  0  0
   -1.7995    3.8088    0.0000 N   0  0  0  0  0  0  0  0  0  0  0  0
    0.7451    4.3334    0.0000 N   0  0  0  0  0  0  0  0  0  0  0  0
    2.4717    2.3920    0.0000 C   0  0  0  0  0  0  0  0  0  0  0  0
    3.8954    1.9197    0.0000 C   0  0  0  0  0  0  0  0  0  0  0  0
    5.0162    2.9166    0.0000 C   0  0  0  0  0  0  0  0  0  0  0  0
    6.4399    2.4443    0.0000 O   0  0  0  0  0  0  0  0  0  0  0  0
    4.7134    4.3857    0.0000 O   0  0  0  0  0  0  0  0  0  0  0  0
  2  1  1  1
  2  3  1  0
  3  4  1  1
  3  5  1  0
  5  6  1  6
  5  7  1  0
  7  8  1  0
  2  9  1  0
  9 10  1  6
 10 11  1  0
 11 12  2  0
 11 13  1  0
  9 14  1  0
 14 15  1  1
 15 16  1  0
 16 17  1  0
 17 18  1  0
 18 19  1  0
 19 20  2  0
 19 21  1  0
 21 22  1  0
 22 23  1  0
 23 24  1  0
 24 25  1  0
 25 26  1  0
 15 27  1  0
 27 28  1  0
 27 29  2  0
 14 30  1  0
 30 31  2  0
 31 32  1  0
 32 33  1  0
 32 34  2  0
 31  1  1  0
 26 21  1  0
M  END
>  <IC50>  (237) 
23.1

>  <cmpdNO>  (237) 
254

$$$$

     RDKit          2D

 28 28  0  0  0  0  0  0  0  0999 V2000
   -2.8612   -1.2861    0.0000 O   0  0  0  0  0  0  0  0  0  0  0  0
   -2.7761    0.2114    0.0000 C   0  0  0  0  0  0  0  0  0  0  0  0
   -4.0305    1.0340    0.0000 C   0  0  0  0  0  0  0  0  0  0  0  0
   -3.9454    2.5315    0.0000 O   0  0  0  0  0  0  0  0  0  0  0  0
   -5.3700    0.3589    0.0000 C   0  0  0  0  0  0  0  0  0  0  0  0
   -5.4551   -1.1387    0.0000 O   0  0  0  0  0  0  0  0  0  0  0  0
   -6.6244    1.1814    0.0000 C   0  0  0  0  0  0  0  0  0  0  0  0
   -7.9639    0.5063    0.0000 O   0  0  0  0  0  0  0  0  0  0  0  0
   -1.4366    0.8865    0.0000 C   0  0  0  0  0  0  0  0  0  0  0  0
   -1.3515    2.3841    0.0000 N   0  0  0  0  0  0  0  0  0  0  0  0
   -0.0120    3.0592    0.0000 C   0  0  0  0  0  0  0  0  0  0  0  0
    1.2424    2.2367    0.0000 O   0  0  0  0  0  0  0  0  0  0  0  0
    0.0731    4.5568    0.0000 C   0  0  0  0  0  0  0  0  0  0  0  0
   -0.1822    0.0640    0.0000 C   0  0  0  0  0  0  0  0  0  0  0  0
    1.1573    0.7391    0.0000 N   0  0  0  0  0  0  0  0  0  0  0  0
    2.4117   -0.0834    0.0000 C   0  0  0  0  0  0  0  0  0  0  0  0
    3.7512    0.5917    0.0000 N   0  0  0  0  0  0  0  0  0  0  0  0
    5.0055   -0.2308    0.0000 C   0  0  0  0  0  0  0  0  0  0  0  0
    6.3450    0.4442    0.0000 C   0  0  0  0  0  0  0  0  0  0  0  0
    7.5994   -0.3783    0.0000 C   0  0  0  0  0  0  0  0  0  0  0  0
    8.9389    0.2968    0.0000 C   0  0  0  0  0  0  0  0  0  0  0  0
   10.1933   -0.5257    0.0000 N   0  0  0  0  0  0  0  0  0  0  0  0
    2.3265   -1.5810    0.0000 N   0  0  0  0  0  0  0  0  0  0  0  0
   -0.2674   -1.4336    0.0000 C   0  0  0  0  0  0  0  0  0  0  0  0
   -1.6069   -2.1086    0.0000 C   0  0  0  0  0  0  0  0  0  0  0  0
   -1.6920   -3.6062    0.0000 C   0  0  0  0  0  0  0  0  0  0  0  0
   -3.0315   -4.2813    0.0000 O   0  0  0  0  0  0  0  0  0  0  0  0
   -0.4376   -4.4287    0.0000 O   0  0  0  0  0  0  0  0  0  0  0  0
  2  1  1  1
  2  3  1  0
  3  4  1  1
  3  5  1  0
  5  6  1  6
  5  7  1  0
  7  8  1  0
  2  9  1  0
  9 10  1  6
 10 11  1  0
 11 12  2  0
 11 13  1  0
  9 14  1  0
 14 15  1  1
 15 16  1  0
 16 17  1  0
 17 18  1  0
 18 19  1  0
 19 20  1  0
 20 21  1  0
 21 22  1  0
 16 23  2  0
 14 24  1  0
 24 25  2  0
 25 26  1  0
 26 27  1  0
 26 28  2  0
 25  1  1  0
M  END
>  <IC50>  (238) 
200

>  <cmpdNO>  (238) 
255

$$$$

     RDKit          2D

 27 27  0  0  0  0  0  0  0  0999 V2000
   -1.9768   -1.3009    0.0000 O   0  0  0  0  0  0  0  0  0  0  0  0
   -1.4233    0.0932    0.0000 C   0  0  0  0  0  0  0  0  0  0  0  0
   -2.3539    1.2696    0.0000 C   0  0  0  0  0  0  0  0  0  0  0  0
   -2.1050    2.2218    0.0000 O   0  0  0  0  0  0  0  0  0  0  0  0
   -3.8380    1.0519    0.0000 C   0  0  0  0  0  0  0  0  0  0  0  0
   -4.3916   -0.3422    0.0000 O   0  0  0  0  0  0  0  0  0  0  0  0
   -4.7687    2.2283    0.0000 C   0  0  0  0  0  0  0  0  0  0  0  0
   -6.2528    2.0106    0.0000 O   0  0  0  0  0  0  0  0  0  0  0  0
    0.0608    0.3109    0.0000 C   0  0  0  0  0  0  0  0  0  0  0  0
    0.6143    1.7050    0.0000 N   0  0  0  0  0  0  0  0  0  0  0  0
   -0.3163    2.8815    0.0000 C   0  0  0  0  0  0  0  0  0  0  0  0
   -1.3002    2.8584    0.0000 O   0  0  0  0  0  0  0  0  0  0  0  0
    0.2372    4.2756    0.0000 C   0  0  0  0  0  0  0  0  0  0  0  0
    0.9914   -0.8655    0.0000 C   0  0  0  0  0  0  0  0  0  0  0  0
    2.4755   -0.6478    0.0000 N   0  0  0  0  0  0  0  0  0  0  0  0
    3.0290    0.7463    0.0000 C   0  0  0  0  0  0  0  0  0  0  0  0
    4.5131    0.9640    0.0000 C   0  0  0  0  0  0  0  0  0  0  0  0
    5.0666    2.3582    0.0000 C   0  0  0  0  0  0  0  0  0  0  0  0
    6.5508    2.5759    0.0000 N   0  0  0  0  0  0  0  0  0  0  0  0
    3.4061   -1.8242    0.0000 C   0  0  0  0  0  0  0  0  0  0  0  0
    4.8902   -1.6065    0.0000 N   0  0  0  0  0  0  0  0  0  0  0  0
    2.8526   -3.2184    0.0000 N   0  0  0  0  0  0  0  0  0  0  0  0
    0.4379   -2.2597    0.0000 C   0  0  0  0  0  0  0  0  0  0  0  0
   -1.0462   -2.4774    0.0000 C   0  0  0  0  0  0  0  0  0  0  0  0
   -1.5997   -3.8715    0.0000 C   0  0  0  0  0  0  0  0  0  0  0  0
   -3.0839   -4.0892    0.0000 O   0  0  0  0  0  0  0  0  0  0  0  0
   -0.6691   -5.0479    0.0000 O   0  0  0  0  0  0  0  0  0  0  0  0
  2  1  1  1
  2  3  1  0
  3  4  1  1
  3  5  1  0
  5  6  1  6
  5  7  1  0
  7  8  1  0
  2  9  1  0
  9 10  1  6
 10 11  1  0
 11 12  2  0
 11 13  1  0
  9 14  1  0
 14 15  1  1
 15 16  1  0
 16 17  1  0
 17 18  1  0
 18 19  1  0
 15 20  1  0
 20 21  1  0
 20 22  2  0
 14 23  1  0
 23 24  2  0
 24 25  1  0
 25 26  1  0
 25 27  2  0
 24  1  1  0
M  END
>  <IC50>  (239) 
200

>  <cmpdNO>  (239) 
256

$$$$

     RDKit          2D

 28 28  0  0  0  0  0  0  0  0999 V2000
    2.4419    1.0460    0.0000 O   0  0  0  0  0  0  0  0  0  0  0  0
    1.6612   -0.2348    0.0000 C   0  0  0  0  0  0  0  0  0  0  0  0
    2.3802   -1.5513    0.0000 C   0  0  0  0  0  0  0  0  0  0  0  0
    1.9743   -2.4479    0.0000 O   0  0  0  0  0  0  0  0  0  0  0  0
    3.8798   -1.5869    0.0000 C   0  0  0  0  0  0  0  0  0  0  0  0
    4.6604   -0.3061    0.0000 O   0  0  0  0  0  0  0  0  0  0  0  0
    4.5987   -2.9034    0.0000 C   0  0  0  0  0  0  0  0  0  0  0  0
    6.0983   -2.9390    0.0000 O   0  0  0  0  0  0  0  0  0  0  0  0
    0.1617   -0.1992    0.0000 C   0  0  0  0  0  0  0  0  0  0  0  0
   -0.6190   -1.4801    0.0000 N   0  0  0  0  0  0  0  0  0  0  0  0
    0.1000   -2.7966    0.0000 C   0  0  0  0  0  0  0  0  0  0  0  0
    1.0737   -2.9397    0.0000 O   0  0  0  0  0  0  0  0  0  0  0  0
   -0.6806   -4.0774    0.0000 C   0  0  0  0  0  0  0  0  0  0  0  0
   -0.5573    1.1173    0.0000 C   0  0  0  0  0  0  0  0  0  0  0  0
   -2.0569    1.1529    0.0000 N   0  0  0  0  0  0  0  0  0  0  0  0
   -2.8375   -0.1280    0.0000 C   0  0  0  0  0  0  0  0  0  0  0  0
   -4.3371   -0.0924    0.0000 C   0  0  0  0  0  0  0  0  0  0  0  0
   -5.1177   -1.3733    0.0000 C   0  0  0  0  0  0  0  0  0  0  0  0
   -6.6173   -1.3377    0.0000 C   0  0  0  0  0  0  0  0  0  0  0  0
   -7.3979   -2.6185    0.0000 N   0  0  0  0  0  0  0  0  0  0  0  0
   -2.7758    2.4693    0.0000 C   0  0  0  0  0  0  0  0  0  0  0  0
   -4.2754    2.5049    0.0000 N   0  0  0  0  0  0  0  0  0  0  0  0
   -1.9952    3.7502    0.0000 N   0  0  0  0  0  0  0  0  0  0  0  0
    0.2233    2.3981    0.0000 C   0  0  0  0  0  0  0  0  0  0  0  0
    1.7229    2.3625    0.0000 C   0  0  0  0  0  0  0  0  0  0  0  0
    2.5035    3.6434    0.0000 C   0  0  0  0  0  0  0  0  0  0  0  0
    4.0031    3.6078    0.0000 O   0  0  0  0  0  0  0  0  0  0  0  0
    1.7846    4.9599    0.0000 O   0  0  0  0  0  0  0  0  0  0  0  0
  1  2  1  0
  3  2  1  1
  3  4  1  0
  3  5  1  0
  5  6  1  6
  5  7  1  0
  7  8  1  0
  2  9  1  0
  9 10  1  6
 10 11  1  0
 11 12  2  0
 11 13  1  0
  9 14  1  0
 14 15  1  1
 15 16  1  0
 16 17  1  0
 17 18  1  0
 18 19  1  0
 19 20  1  0
 15 21  1  0
 21 22  1  0
 21 23  2  0
 14 24  1  0
 24 25  2  0
 25 26  1  0
 26 27  1  0
 26 28  2  0
 25  1  1  0
M  END
>  <IC50>  (240) 
200

>  <cmpdNO>  (240) 
258

$$$$

     RDKit          2D

 27 27  0  0  0  0  0  0  0  0999 V2000
   -2.5044   -1.2654    0.0000 O   0  0  0  0  0  0  0  0  0  0  0  0
   -2.3952    0.2306    0.0000 C   0  0  0  0  0  0  0  0  0  0  0  0
   -3.6362    1.0732    0.0000 C   0  0  0  0  0  0  0  0  0  0  0  0
   -3.5269    2.5693    0.0000 O   0  0  0  0  0  0  0  0  0  0  0  0
   -4.9864    0.4199    0.0000 C   0  0  0  0  0  0  0  0  0  0  0  0
   -5.0956   -1.0762    0.0000 O   0  0  0  0  0  0  0  0  0  0  0  0
   -6.2273    1.2625    0.0000 C   0  0  0  0  0  0  0  0  0  0  0  0
   -7.5775    0.6091    0.0000 O   0  0  0  0  0  0  0  0  0  0  0  0
   -1.0450    0.8840    0.0000 C   0  0  0  0  0  0  0  0  0  0  0  0
   -0.9357    2.3800    0.0000 N   0  0  0  0  0  0  0  0  0  0  0  0
    0.4145    3.0334    0.0000 C   0  0  0  0  0  0  0  0  0  0  0  0
    1.6555    2.1908    0.0000 O   0  0  0  0  0  0  0  0  0  0  0  0
    0.5237    4.5294    0.0000 C   0  0  0  0  0  0  0  0  0  0  0  0
    0.1960    0.0414    0.0000 C   0  0  0  0  0  0  0  0  0  0  0  0
    1.5462    0.6948    0.0000 N   0  0  0  0  0  0  0  0  0  0  0  0
    2.7872   -0.1478    0.0000 C   0  0  0  0  0  0  0  0  0  0  0  0
    4.1374    0.5056    0.0000 N   0  0  0  0  0  0  0  0  0  0  0  0
    5.3783   -0.3371    0.0000 C   0  0  0  0  0  0  0  0  0  0  0  0
    6.7286    0.3163    0.0000 C   0  0  0  0  0  0  0  0  0  0  0  0
    7.9695   -0.5263    0.0000 C   0  0  0  0  0  0  0  0  0  0  0  0
    9.3197    0.1271    0.0000 N   0  0  0  0  0  0  0  0  0  0  0  0
    2.6779   -1.6439    0.0000 N   0  0  0  0  0  0  0  0  0  0  0  0
    0.0867   -1.4546    0.0000 C   0  0  0  0  0  0  0  0  0  0  0  0
   -1.2635   -2.1080    0.0000 C   0  0  0  0  0  0  0  0  0  0  0  0
   -1.3727   -3.6040    0.0000 C   0  0  0  0  0  0  0  0  0  0  0  0
   -2.7229   -4.2574    0.0000 O   0  0  0  0  0  0  0  0  0  0  0  0
   -0.1318   -4.4467    0.0000 O   0  0  0  0  0  0  0  0  0  0  0  0
  2  1  1  1
  2  3  1  0
  3  4  1  1
  3  5  1  0
  5  6  1  6
  5  7  1  0
  7  8  1  0
  2  9  1  0
  9 10  1  6
 10 11  1  0
 11 12  2  0
 11 13  1  0
  9 14  1  0
 14 15  1  1
 15 16  1  0
 16 17  1  0
 17 18  1  0
 18 19  1  0
 19 20  1  0
 20 21  1  0
 16 22  2  0
 14 23  1  0
 23 24  2  0
 24 25  1  0
 25 26  1  0
 25 27  2  0
 24  1  1  0
M  END
>  <IC50>  (241) 
200

>  <cmpdNO>  (241) 
259

$$$$

     RDKit          2D

 27 27  0  0  0  0  0  0  0  0999 V2000
   -2.6593   -1.3283    0.0000 O   0  0  0  0  0  0  0  0  0  0  0  0
   -2.5931    0.1702    0.0000 C   0  0  0  0  0  0  0  0  0  0  0  0
   -3.8578    0.9768    0.0000 C   0  0  0  0  0  0  0  0  0  0  0  0
   -3.7915    2.4754    0.0000 O   0  0  0  0  0  0  0  0  0  0  0  0
   -5.1886    0.2849    0.0000 C   0  0  0  0  0  0  0  0  0  0  0  0
   -5.2549   -1.2136    0.0000 O   0  0  0  0  0  0  0  0  0  0  0  0
   -6.4533    1.0915    0.0000 C   0  0  0  0  0  0  0  0  0  0  0  0
   -7.7842    0.3996    0.0000 O   0  0  0  0  0  0  0  0  0  0  0  0
   -1.2622    0.8621    0.0000 C   0  0  0  0  0  0  0  0  0  0  0  0
   -1.1960    2.3607    0.0000 N   0  0  0  0  0  0  0  0  0  0  0  0
    0.1349    3.0526    0.0000 C   0  0  0  0  0  0  0  0  0  0  0  0
    1.3996    2.2460    0.0000 O   0  0  0  0  0  0  0  0  0  0  0  0
    0.2011    4.5511    0.0000 C   0  0  0  0  0  0  0  0  0  0  0  0
    0.0025    0.0555    0.0000 C   0  0  0  0  0  0  0  0  0  0  0  0
    1.3333    0.7474    0.0000 N   0  0  0  0  0  0  0  0  0  0  0  0
    2.5980   -0.0592    0.0000 C   0  0  0  0  0  0  0  0  0  0  0  0
    3.9289    0.6327    0.0000 C   0  0  0  0  0  0  0  0  0  0  0  0
    5.1935   -0.1739    0.0000 C   0  0  0  0  0  0  0  0  0  0  0  0
    6.5244    0.5180    0.0000 C   0  0  0  0  0  0  0  0  0  0  0  0
    7.7891   -0.2886    0.0000 C   0  0  0  0  0  0  0  0  0  0  0  0
    9.1200    0.4033    0.0000 O   0  0  0  0  0  0  0  0  0  0  0  0
    7.7229   -1.7871    0.0000 O   0  0  0  0  0  0  0  0  0  0  0  0
   -0.0638   -1.4430    0.0000 C   0  0  0  0  0  0  0  0  0  0  0  0
   -1.3946   -2.1350    0.0000 C   0  0  0  0  0  0  0  0  0  0  0  0
   -1.4609   -3.6335    0.0000 C   0  0  0  0  0  0  0  0  0  0  0  0
   -2.7918   -4.3254    0.0000 O   0  0  0  0  0  0  0  0  0  0  0  0
   -0.1962   -4.4401    0.0000 O   0  0  0  0  0  0  0  0  0  0  0  0
  2  1  1  1
  2  3  1  0
  3  4  1  1
  3  5  1  0
  5  6  1  6
  5  7  1  0
  7  8  1  0
  2  9  1  0
  9 10  1  6
 10 11  1  0
 11 12  2  0
 11 13  1  0
  9 14  1  0
 14 15  1  1
 15 16  1  0
 16 17  1  0
 17 18  1  0
 18 19  1  0
 19 20  1  0
 20 21  1  0
 20 22  2  0
 14 23  1  0
 23 24  2  0
 24 25  1  0
 25 26  1  0
 25 27  2  0
 24  1  1  0
M  END
>  <IC50>  (242) 
80

>  <cmpdNO>  (242) 
260

$$$$

     RDKit          2D

 25 26  0  0  0  0  0  0  0  0999 V2000
   -1.6022   -1.3095    0.0000 O   0  0  0  0  0  0  0  0  0  0  0  0
   -1.6274    0.1903    0.0000 C   0  0  0  0  0  0  0  0  0  0  0  0
   -2.9388    0.9184    0.0000 C   0  0  0  0  0  0  0  0  0  0  0  0
   -2.9640    2.4181    0.0000 O   0  0  0  0  0  0  0  0  0  0  0  0
   -4.2251    0.1466    0.0000 C   0  0  0  0  0  0  0  0  0  0  0  0
   -4.1999   -1.3531    0.0000 O   0  0  0  0  0  0  0  0  0  0  0  0
   -5.5366    0.8747    0.0000 C   0  0  0  0  0  0  0  0  0  0  0  0
   -6.8228    0.1030    0.0000 O   0  0  0  0  0  0  0  0  0  0  0  0
   -0.3411    0.9620    0.0000 C   0  0  0  0  0  0  0  0  0  0  0  0
   -0.3663    2.4618    0.0000 N   0  0  0  0  0  0  0  0  0  0  0  0
    0.9199    3.2335    0.0000 C   0  0  0  0  0  0  0  0  0  0  0  0
    2.2314    2.5054    0.0000 O   0  0  0  0  0  0  0  0  0  0  0  0
    0.8947    4.7333    0.0000 C   0  0  0  0  0  0  0  0  0  0  0  0
    0.9703    0.2339    0.0000 C   0  0  0  0  0  0  0  0  0  0  0  0
    2.2566    1.0056    0.0000 N   0  0  0  0  0  0  0  0  0  0  0  0
    3.5680    0.2776    0.0000 C   0  0  0  0  0  0  0  0  0  0  0  0
    4.9279    0.9106    0.0000 N   0  0  0  0  0  0  0  0  0  0  0  0
    5.9502   -0.1871    0.0000 C   0  0  0  0  0  0  0  0  0  0  0  0
    5.2221   -1.4985    0.0000 C   0  0  0  0  0  0  0  0  0  0  0  0
    3.7499   -1.2114    0.0000 N   0  0  0  0  0  0  0  0  0  0  0  0
    0.9955   -1.2659    0.0000 C   0  0  0  0  0  0  0  0  0  0  0  0
   -0.2907   -2.0376    0.0000 C   0  0  0  0  0  0  0  0  0  0  0  0
   -0.2655   -3.5374    0.0000 C   0  0  0  0  0  0  0  0  0  0  0  0
   -1.5518   -4.3091    0.0000 O   0  0  0  0  0  0  0  0  0  0  0  0
    1.0459   -4.2654    0.0000 O   0  0  0  0  0  0  0  0  0  0  0  0
  2  1  1  1
  2  3  1  0
  3  4  1  1
  3  5  1  0
  5  6  1  6
  5  7  1  0
  7  8  1  0
  2  9  1  0
  9 10  1  6
 10 11  1  0
 11 12  2  0
 11 13  1  0
  9 14  1  0
 14 15  1  1
 15 16  1  0
 16 17  1  0
 17 18  1  0
 18 19  1  0
 19 20  1  0
 14 21  1  0
 21 22  2  0
 22 23  1  0
 23 24  1  0
 23 25  2  0
 22  1  1  0
 16 20  2  0
M  END
>  <IC50>  (243) 
200

>  <cmpdNO>  (243) 
261

$$$$

     RDKit          2D

 24 24  0  0  0  0  0  0  0  0999 V2000
   -1.7407   -1.2613    0.0000 O   0  0  0  0  0  0  0  0  0  0  0  0
   -1.5535    0.2269    0.0000 C   0  0  0  0  0  0  0  0  0  0  0  0
   -2.7488    1.1332    0.0000 C   0  0  0  0  0  0  0  0  0  0  0  0
   -2.5615    2.6215    0.0000 O   0  0  0  0  0  0  0  0  0  0  0  0
   -4.1313    0.5512    0.0000 C   0  0  0  0  0  0  0  0  0  0  0  0
   -4.3185   -0.9370    0.0000 O   0  0  0  0  0  0  0  0  0  0  0  0
   -5.3265    1.4575    0.0000 C   0  0  0  0  0  0  0  0  0  0  0  0
   -6.7090    0.8755    0.0000 O   0  0  0  0  0  0  0  0  0  0  0  0
   -0.1710    0.8089    0.0000 C   0  0  0  0  0  0  0  0  0  0  0  0
    0.0162    2.2972    0.0000 N   0  0  0  0  0  0  0  0  0  0  0  0
    1.3987    2.8792    0.0000 C   0  0  0  0  0  0  0  0  0  0  0  0
    2.5940    1.9729    0.0000 O   0  0  0  0  0  0  0  0  0  0  0  0
    1.5860    4.3674    0.0000 C   0  0  0  0  0  0  0  0  0  0  0  0
    1.0243   -0.0974    0.0000 C   0  0  0  0  0  0  0  0  0  0  0  0
    2.4068    0.4846    0.0000 N   0  0  0  0  0  0  0  0  0  0  0  0
    3.6020   -0.4217    0.0000 C   0  0  0  0  0  0  0  0  0  0  0  0
    4.9845    0.1603    0.0000 C   0  0  0  0  0  0  0  0  0  0  0  0
    6.1798   -0.7460    0.0000 C   0  0  0  0  0  0  0  0  0  0  0  0
    7.5623   -0.1640    0.0000 N   0  0  0  0  0  0  0  0  0  0  0  0
    0.8370   -1.5856    0.0000 C   0  0  0  0  0  0  0  0  0  0  0  0
   -0.5455   -2.1676    0.0000 C   0  0  0  0  0  0  0  0  0  0  0  0
   -0.7327   -3.6559    0.0000 C   0  0  0  0  0  0  0  0  0  0  0  0
   -2.1152   -4.2379    0.0000 O   0  0  0  0  0  0  0  0  0  0  0  0
    0.4626   -4.5622    0.0000 O   0  0  0  0  0  0  0  0  0  0  0  0
  2  1  1  1
  2  3  1  0
  3  4  1  1
  3  5  1  0
  5  6  1  6
  5  7  1  0
  7  8  1  0
  2  9  1  0
  9 10  1  6
 10 11  1  0
 11 12  2  0
 11 13  1  0
  9 14  1  0
 14 15  1  1
 15 16  1  0
 16 17  1  0
 17 18  1  0
 18 19  1  0
 14 20  1  0
 20 21  2  0
 21 22  1  0
 22 23  1  0
 22 24  2  0
 21  1  1  0
M  END
>  <IC50>  (244) 
200

>  <cmpdNO>  (244) 
262

$$$$

     RDKit          2D

 26 26  0  0  0  0  0  0  0  0999 V2000
   -2.3787   -1.2653    0.0000 O   0  0  0  0  0  0  0  0  0  0  0  0
   -2.1878    0.2225    0.0000 C   0  0  0  0  0  0  0  0  0  0  0  0
   -3.3809    1.1317    0.0000 C   0  0  0  0  0  0  0  0  0  0  0  0
   -3.1900    2.6195    0.0000 O   0  0  0  0  0  0  0  0  0  0  0  0
   -4.7648    0.5531    0.0000 C   0  0  0  0  0  0  0  0  0  0  0  0
   -4.9557   -0.9347    0.0000 O   0  0  0  0  0  0  0  0  0  0  0  0
   -5.9578    1.4623    0.0000 C   0  0  0  0  0  0  0  0  0  0  0  0
   -7.3418    0.8837    0.0000 O   0  0  0  0  0  0  0  0  0  0  0  0
   -0.8039    0.8011    0.0000 C   0  0  0  0  0  0  0  0  0  0  0  0
   -0.6131    2.2889    0.0000 N   0  0  0  0  0  0  0  0  0  0  0  0
    0.7709    2.8675    0.0000 C   0  0  0  0  0  0  0  0  0  0  0  0
    1.9639    1.9583    0.0000 O   0  0  0  0  0  0  0  0  0  0  0  0
    0.9617    4.3553    0.0000 C   0  0  0  0  0  0  0  0  0  0  0  0
    0.3891   -0.1081    0.0000 C   0  0  0  0  0  0  0  0  0  0  0  0
    1.7730    0.4705    0.0000 N   0  0  0  0  0  0  0  0  0  0  0  0
    2.9661   -0.4387    0.0000 C   0  0  0  0  0  0  0  0  0  0  0  0
    4.3500    0.1399    0.0000 C   0  0  0  0  0  0  0  0  0  0  0  0
    5.5430   -0.7693    0.0000 C   0  0  0  0  0  0  0  0  0  0  0  0
    6.9269   -0.1907    0.0000 C   0  0  0  0  0  0  0  0  0  0  0  0
    8.1200   -1.0999    0.0000 O   0  0  0  0  0  0  0  0  0  0  0  0
    7.1178    1.2971    0.0000 O   0  0  0  0  0  0  0  0  0  0  0  0
    0.1982   -1.5959    0.0000 C   0  0  0  0  0  0  0  0  0  0  0  0
   -1.1857   -2.1745    0.0000 C   0  0  0  0  0  0  0  0  0  0  0  0
   -1.3765   -3.6623    0.0000 C   0  0  0  0  0  0  0  0  0  0  0  0
   -2.7605   -4.2409    0.0000 O   0  0  0  0  0  0  0  0  0  0  0  0
   -0.1835   -4.5715    0.0000 O   0  0  0  0  0  0  0  0  0  0  0  0
  2  1  1  1
  2  3  1  0
  3  4  1  1
  3  5  1  0
  5  6  1  6
  5  7  1  0
  7  8  1  0
  2  9  1  0
  9 10  1  6
 10 11  1  0
 11 12  2  0
 11 13  1  0
  9 14  1  0
 14 15  1  1
 15 16  1  0
 16 17  1  0
 17 18  1  0
 18 19  1  0
 19 20  1  0
 19 21  2  0
 14 22  1  0
 22 23  2  0
 23 24  1  0
 24 25  1  0
 24 26  2  0
 23  1  1  0
M  END
>  <IC50>  (245) 
70

>  <cmpdNO>  (245) 
263

$$$$

     RDKit          2D

 21 22  0  0  0  0  0  0  0  0999 V2000
   -4.8786   -2.3057    0.0000 O   0  0  0  0  0  0  0  0  0  0  0  0
   -3.3966   -2.5372    0.0000 C   0  0  0  0  0  0  0  0  0  0  0  0
   -2.8561   -3.9365    0.0000 O   0  0  0  0  0  0  0  0  0  0  0  0
   -2.4551   -1.3695    0.0000 C   0  0  0  0  0  0  0  0  0  0  0  0
   -2.9956    0.0297    0.0000 C   0  0  0  0  0  0  0  0  0  0  0  0
   -2.0541    1.1974    0.0000 C   0  0  0  0  0  0  0  0  0  0  0  0
   -2.5946    2.5967    0.0000 N   0  0  0  0  0  0  0  0  0  0  0  0
   -0.5721    0.9659    0.0000 C   0  0  0  0  0  0  0  0  0  0  0  0
    0.3695    2.1336    0.0000 N   0  0  0  0  0  0  0  0  0  0  0  0
   -0.1710    3.5328    0.0000 C   0  0  0  0  0  0  0  0  0  0  0  0
   -1.6531    3.7644    0.0000 O   0  0  0  0  0  0  0  0  0  0  0  0
    0.7705    4.7005    0.0000 C   0  0  0  0  0  0  0  0  0  0  0  0
   -0.0316   -0.4333    0.0000 C   0  0  0  0  0  0  0  0  0  0  0  0
    1.4505   -0.6649    0.0000 N   0  0  0  0  0  0  0  0  0  0  0  0
    1.9910   -2.0641    0.0000 C   0  0  0  0  0  0  0  0  0  0  0  0
    3.4730   -2.2956    0.0000 C   0  0  0  0  0  0  0  0  0  0  0  0
    4.4145   -1.1279    0.0000 N   0  0  0  0  0  0  0  0  0  0  0  0
    3.8740    0.2713    0.0000 C   0  0  0  0  0  0  0  0  0  0  0  0
    2.3920    0.5028    0.0000 C   0  0  0  0  0  0  0  0  0  0  0  0
    5.8965   -1.3595    0.0000 C   0  0  0  0  0  0  0  0  0  0  0  0
   -0.9731   -1.6010    0.0000 C   0  0  0  0  0  0  0  0  0  0  0  0
  1  2  1  0
  2  3  2  0
  2  4  1  0
  4  5  1  0
  5  6  1  0
  6  7  1  0
  6  8  1  0
  8  9  1  0
  9 10  1  0
 10 11  2  0
 10 12  1  0
  8 13  1  0
 13 14  1  0
 14 15  1  0
 15 16  1  0
 16 17  1  0
 17 18  1  0
 18 19  1  0
 17 20  1  0
 13 21  1  0
  4 21  2  0
 19 14  1  0
M  END
>  <IC50>  (246) 
1.901

>  <cmpdNO>  (246) 
264

$$$$

     RDKit          2D

 21 21  0  0  0  0  0  0  0  0999 V2000
    0.4137   -2.0621    0.0000 Cl  0  0  0  0  0  0  0  0  0  0  0  0
    0.8935   -0.6409    0.0000 C   0  0  0  0  0  0  0  0  0  0  0  0
   -0.0973    0.4852    0.0000 C   0  0  0  0  0  0  0  0  0  0  0  0
   -1.5680    0.1901    0.0000 O   0  0  0  0  0  0  0  0  0  0  0  0
   -2.0479   -1.2310    0.0000 C   0  0  0  0  0  0  0  0  0  0  0  0
   -3.5185   -1.5261    0.0000 C   0  0  0  0  0  0  0  0  0  0  0  0
   -3.9984   -2.9473    0.0000 C   0  0  0  0  0  0  0  0  0  0  0  0
   -1.0570   -2.3572    0.0000 C   0  0  0  0  0  0  0  0  0  0  0  0
   -1.5368   -3.7784    0.0000 C   0  0  0  0  0  0  0  0  0  0  0  0
    0.3825    1.9064    0.0000 C   0  0  0  0  0  0  0  0  0  0  0  0
   -0.6084    3.0325    0.0000 N   0  0  0  0  0  0  0  0  0  0  0  0
   -2.0791    2.7375    0.0000 C   0  0  0  0  0  0  0  0  0  0  0  0
   -2.5589    1.3163    0.0000 O   0  0  0  0  0  0  0  0  0  0  0  0
   -3.0700    3.8636    0.0000 C   0  0  0  0  0  0  0  0  0  0  0  0
    1.8532    2.2015    0.0000 C   0  0  0  0  0  0  0  0  0  0  0  0
    2.3330    3.6226    0.0000 N   0  0  0  0  0  0  0  0  0  0  0  0
    2.8440    1.0753    0.0000 C   0  0  0  0  0  0  0  0  0  0  0  0
    2.3642   -0.3459    0.0000 C   0  0  0  0  0  0  0  0  0  0  0  0
    3.3551   -1.4720    0.0000 C   0  0  0  0  0  0  0  0  0  0  0  0
    2.8753   -2.8932    0.0000 O   0  0  0  0  0  0  0  0  0  0  0  0
    4.8258   -1.1769    0.0000 O   0  0  0  0  0  0  0  0  0  0  0  0
  1  2  1  0
  2  3  1  0
  3  4  1  0
  4  5  1  0
  5  6  1  0
  6  7  1  0
  5  8  1  0
  8  9  1  0
  3 10  1  0
 10 11  1  0
 11 12  1  0
 12 13  2  0
 12 14  1  0
 10 15  1  0
 15 16  1  0
 15 17  1  0
 17 18  1  0
 18 19  1  0
 19 20  1  0
 19 21  2  0
  2 18  2  0
M  END
>  <IC50>  (247) 
3.097

>  <cmpdNO>  (247) 
267

$$$$

     RDKit          2D

 22 22  0  0  0  0  0  0  0  0999 V2000
    0.9044   -1.7263    0.0000 S   0  0  0  0  0  0  0  0  0  0  0  0
    2.1854   -2.5067    0.0000 C   0  0  0  0  0  0  0  0  0  0  0  0
    0.9397   -0.2267    0.0000 C   0  0  0  0  0  0  0  0  0  0  0  0
   -0.3413    0.5536    0.0000 C   0  0  0  0  0  0  0  0  0  0  0  0
   -1.6577   -0.1656    0.0000 O   0  0  0  0  0  0  0  0  0  0  0  0
   -1.6930   -1.6651    0.0000 C   0  0  0  0  0  0  0  0  0  0  0  0
   -3.0093   -2.3843    0.0000 C   0  0  0  0  0  0  0  0  0  0  0  0
   -3.0447   -3.8839    0.0000 C   0  0  0  0  0  0  0  0  0  0  0  0
   -0.4120   -2.4455    0.0000 C   0  0  0  0  0  0  0  0  0  0  0  0
   -0.4473   -3.9451    0.0000 C   0  0  0  0  0  0  0  0  0  0  0  0
   -0.3060    2.0532    0.0000 C   0  0  0  0  0  0  0  0  0  0  0  0
   -1.5870    2.8336    0.0000 N   0  0  0  0  0  0  0  0  0  0  0  0
   -2.9034    2.1144    0.0000 C   0  0  0  0  0  0  0  0  0  0  0  0
   -2.9387    0.6148    0.0000 O   0  0  0  0  0  0  0  0  0  0  0  0
   -4.1844    2.8948    0.0000 C   0  0  0  0  0  0  0  0  0  0  0  0
    1.0103    2.7724    0.0000 C   0  0  0  0  0  0  0  0  0  0  0  0
    1.0456    4.2720    0.0000 N   0  0  0  0  0  0  0  0  0  0  0  0
    2.2913    1.9921    0.0000 C   0  0  0  0  0  0  0  0  0  0  0  0
    2.2560    0.4925    0.0000 C   0  0  0  0  0  0  0  0  0  0  0  0
    3.5370   -0.2879    0.0000 C   0  0  0  0  0  0  0  0  0  0  0  0
    3.5017   -1.7875    0.0000 O   0  0  0  0  0  0  0  0  0  0  0  0
    4.8534    0.4313    0.0000 O   0  0  0  0  0  0  0  0  0  0  0  0
  1  2  1  0
  1  3  1  0
  3  4  1  0
  4  5  1  0
  5  6  1  0
  6  7  1  0
  7  8  1  0
  6  9  1  0
  9 10  1  0
  4 11  1  0
 11 12  1  0
 12 13  1  0
 13 14  2  0
 13 15  1  0
 11 16  1  0
 16 17  1  0
 16 18  1  0
 18 19  1  0
 19 20  1  0
 20 21  1  0
 20 22  2  0
  3 19  2  0
M  END
>  <IC50>  (248) 
3.396

>  <cmpdNO>  (248) 
268

$$$$

     RDKit          2D

 21 21  0  0  0  0  0  0  0  0999 V2000
   -0.5973   -2.0280    0.0000 O   0  0  0  0  0  0  0  0  0  0  0  0
   -2.0717   -1.7522    0.0000 C   0  0  0  0  0  0  0  0  0  0  0  0
   -3.0477   -2.8913    0.0000 C   0  0  0  0  0  0  0  0  0  0  0  0
   -4.5222   -2.6155    0.0000 C   0  0  0  0  0  0  0  0  0  0  0  0
   -2.5701   -0.3375    0.0000 C   0  0  0  0  0  0  0  0  0  0  0  0
   -4.0446   -0.0617    0.0000 C   0  0  0  0  0  0  0  0  0  0  0  0
    0.3788   -0.8889    0.0000 C   0  0  0  0  0  0  0  0  0  0  0  0
   -0.1197    0.5258    0.0000 C   0  0  0  0  0  0  0  0  0  0  0  0
   -1.5941    0.8016    0.0000 N   0  0  0  0  0  0  0  0  0  0  0  0
   -2.0925    2.2163    0.0000 C   0  0  0  0  0  0  0  0  0  0  0  0
   -1.1165    3.3554    0.0000 O   0  0  0  0  0  0  0  0  0  0  0  0
   -3.5670    2.4921    0.0000 C   0  0  0  0  0  0  0  0  0  0  0  0
    0.8564    1.6649    0.0000 C   0  0  0  0  0  0  0  0  0  0  0  0
    0.3579    3.0796    0.0000 N   0  0  0  0  0  0  0  0  0  0  0  0
    2.3308    1.3891    0.0000 C   0  0  0  0  0  0  0  0  0  0  0  0
    2.8292   -0.0257    0.0000 C   0  0  0  0  0  0  0  0  0  0  0  0
    4.3036   -0.3014    0.0000 C   0  0  0  0  0  0  0  0  0  0  0  0
    5.2797    0.8376    0.0000 O   0  0  0  0  0  0  0  0  0  0  0  0
    4.8021   -1.7162    0.0000 O   0  0  0  0  0  0  0  0  0  0  0  0
    1.8532   -1.1647    0.0000 C   0  0  0  0  0  0  0  0  0  0  0  0
    2.3516   -2.5795    0.0000 C   0  0  0  0  0  0  0  0  0  0  0  0
  1  2  1  0
  2  3  1  0
  3  4  1  0
  2  5  1  0
  5  6  1  0
  1  7  1  0
  7  8  1  0
  8  9  1  0
  9 10  1  0
 10 11  2  0
 10 12  1  0
  8 13  1  0
 13 14  1  0
 13 15  1  0
 15 16  1  0
 16 17  1  0
 17 18  1  0
 17 19  2  0
 16 20  2  0
 20 21  1  0
 20  7  1  0
M  END
>  <IC50>  (249) 
2.301

>  <cmpdNO>  (249) 
269

$$$$

     RDKit          2D

 19 19  0  0  0  0  0  0  0  0999 V2000
   -4.9241   -0.8233    0.0000 O   0  0  0  0  0  0  0  0  0  0  0  0
   -3.5071   -1.3153    0.0000 C   0  0  0  0  0  0  0  0  0  0  0  0
   -3.2247   -2.7885    0.0000 O   0  0  0  0  0  0  0  0  0  0  0  0
   -2.3725   -0.3342    0.0000 C   0  0  0  0  0  0  0  0  0  0  0  0
   -2.6549    1.1390    0.0000 C   0  0  0  0  0  0  0  0  0  0  0  0
   -1.5202    2.1201    0.0000 C   0  0  0  0  0  0  0  0  0  0  0  0
   -1.8026    3.5933    0.0000 N   0  0  0  0  0  0  0  0  0  0  0  0
   -0.1032    1.6281    0.0000 C   0  0  0  0  0  0  0  0  0  0  0  0
    1.0314    2.6092    0.0000 N   0  0  0  0  0  0  0  0  0  0  0  0
    2.4484    2.1172    0.0000 C   0  0  0  0  0  0  0  0  0  0  0  0
    2.7308    0.6440    0.0000 O   0  0  0  0  0  0  0  0  0  0  0  0
    3.5830    3.0983    0.0000 C   0  0  0  0  0  0  0  0  0  0  0  0
    0.1792    0.1549    0.0000 C   0  0  0  0  0  0  0  0  0  0  0  0
    1.5962   -0.3371    0.0000 N   0  0  0  0  0  0  0  0  0  0  0  0
    1.8785   -1.8103    0.0000 C   0  0  0  0  0  0  0  0  0  0  0  0
    0.7439   -2.7914    0.0000 O   0  0  0  0  0  0  0  0  0  0  0  0
    3.2955   -2.3024    0.0000 C   0  0  0  0  0  0  0  0  0  0  0  0
    3.5779   -3.7755    0.0000 C   0  0  0  0  0  0  0  0  0  0  0  0
   -0.9555   -0.8262    0.0000 C   0  0  0  0  0  0  0  0  0  0  0  0
  1  2  1  0
  2  3  2  0
  2  4  1  0
  4  5  1  0
  5  6  1  0
  6  7  1  0
  6  8  1  0
  8  9  1  0
  9 10  1  0
 10 11  2  0
 10 12  1  0
  8 13  1  0
 13 14  1  0
 14 15  1  0
 15 16  2  0
 15 17  1  0
 17 18  1  0
 13 19  1  0
  4 19  2  0
M  END
>  <IC50>  (250) 
2.698

>  <cmpdNO>  (250) 
270

$$$$

     RDKit          2D

 20 20  0  0  0  0  0  0  0  0999 V2000
   -5.0476   -1.2540    0.0000 O   0  0  0  0  0  0  0  0  0  0  0  0
   -3.5895   -1.6059    0.0000 C   0  0  0  0  0  0  0  0  0  0  0  0
   -3.1652   -3.0446    0.0000 O   0  0  0  0  0  0  0  0  0  0  0  0
   -2.5556   -0.5191    0.0000 C   0  0  0  0  0  0  0  0  0  0  0  0
   -2.9799    0.9197    0.0000 C   0  0  0  0  0  0  0  0  0  0  0  0
   -1.9461    2.0065    0.0000 C   0  0  0  0  0  0  0  0  0  0  0  0
   -2.3704    3.4452    0.0000 N   0  0  0  0  0  0  0  0  0  0  0  0
   -0.4879    1.6546    0.0000 C   0  0  0  0  0  0  0  0  0  0  0  0
    0.5459    2.7414    0.0000 N   0  0  0  0  0  0  0  0  0  0  0  0
    2.0040    2.3894    0.0000 C   0  0  0  0  0  0  0  0  0  0  0  0
    2.4283    0.9507    0.0000 O   0  0  0  0  0  0  0  0  0  0  0  0
    3.0379    3.4763    0.0000 C   0  0  0  0  0  0  0  0  0  0  0  0
   -0.0636    0.2158    0.0000 C   0  0  0  0  0  0  0  0  0  0  0  0
    1.3945   -0.1361    0.0000 N   0  0  0  0  0  0  0  0  0  0  0  0
    1.8188   -1.5749    0.0000 C   0  0  0  0  0  0  0  0  0  0  0  0
    0.7849   -2.6617    0.0000 O   0  0  0  0  0  0  0  0  0  0  0  0
    3.2769   -1.9268    0.0000 C   0  0  0  0  0  0  0  0  0  0  0  0
    3.7012   -3.3655    0.0000 C   0  0  0  0  0  0  0  0  0  0  0  0
    4.3108   -0.8400    0.0000 C   0  0  0  0  0  0  0  0  0  0  0  0
   -1.0975   -0.8710    0.0000 C   0  0  0  0  0  0  0  0  0  0  0  0
  1  2  1  0
  2  3  2  0
  2  4  1  0
  4  5  1  0
  5  6  1  0
  6  7  1  0
  6  8  1  0
  8  9  1  0
  9 10  1  0
 10 11  2  0
 10 12  1  0
  8 13  1  0
 13 14  1  0
 14 15  1  0
 15 16  2  0
 15 17  1  0
 17 18  1  0
 17 19  1  0
 13 20  1  0
  4 20  2  0
M  END
>  <IC50>  (251) 
6.397

>  <cmpdNO>  (251) 
271

$$$$

     RDKit          2D

 22 22  0  0  0  0  0  0  0  0999 V2000
   -5.1746   -2.2418    0.0000 O   0  0  0  0  0  0  0  0  0  0  0  0
   -3.6747   -2.2595    0.0000 C   0  0  0  0  0  0  0  0  0  0  0  0
   -2.9401   -3.5674    0.0000 O   0  0  0  0  0  0  0  0  0  0  0  0
   -2.9094   -0.9695    0.0000 C   0  0  0  0  0  0  0  0  0  0  0  0
   -3.6440    0.3384    0.0000 C   0  0  0  0  0  0  0  0  0  0  0  0
   -2.8787    1.6284    0.0000 C   0  0  0  0  0  0  0  0  0  0  0  0
   -3.6133    2.9363    0.0000 N   0  0  0  0  0  0  0  0  0  0  0  0
   -1.3788    1.6107    0.0000 C   0  0  0  0  0  0  0  0  0  0  0  0
   -0.6135    2.9008    0.0000 N   0  0  0  0  0  0  0  0  0  0  0  0
    0.8864    2.8830    0.0000 C   0  0  0  0  0  0  0  0  0  0  0  0
    1.6210    1.5752    0.0000 O   0  0  0  0  0  0  0  0  0  0  0  0
    1.6517    4.1731    0.0000 C   0  0  0  0  0  0  0  0  0  0  0  0
   -0.6442    0.3029    0.0000 C   0  0  0  0  0  0  0  0  0  0  0  0
    0.8557    0.2851    0.0000 N   0  0  0  0  0  0  0  0  0  0  0  0
    1.5903   -1.0227    0.0000 C   0  0  0  0  0  0  0  0  0  0  0  0
    0.8250   -2.3128    0.0000 O   0  0  0  0  0  0  0  0  0  0  0  0
    3.0902   -1.0404    0.0000 C   0  0  0  0  0  0  0  0  0  0  0  0
    3.8248   -2.3482    0.0000 C   0  0  0  0  0  0  0  0  0  0  0  0
    5.3247   -2.3660    0.0000 C   0  0  0  0  0  0  0  0  0  0  0  0
    3.8555    0.2497    0.0000 C   0  0  0  0  0  0  0  0  0  0  0  0
    5.3554    0.2319    0.0000 C   0  0  0  0  0  0  0  0  0  0  0  0
   -1.4095   -0.9872    0.0000 C   0  0  0  0  0  0  0  0  0  0  0  0
  1  2  1  0
  2  3  2  0
  2  4  1  0
  4  5  1  0
  5  6  1  0
  6  7  1  0
  6  8  1  0
  8  9  1  0
  9 10  1  0
 10 11  2  0
 10 12  1  0
  8 13  1  0
 13 14  1  0
 14 15  1  0
 15 16  2  0
 15 17  1  0
 17 18  1  0
 18 19  1  0
 17 20  1  0
 20 21  1  0
 13 22  1  0
  4 22  2  0
M  END
>  <IC50>  (252) 
3.999

>  <cmpdNO>  (252) 
272

$$$$

     RDKit          2D

 21 21  0  0  0  0  0  0  0  0999 V2000
    1.7313    0.2810    0.0000 O   0  0  0  0  0  0  0  0  0  0  0  0
    2.4124   -1.0554    0.0000 C   0  0  0  0  0  0  0  0  0  0  0  0
    3.9104   -1.1338    0.0000 C   0  0  0  0  0  0  0  0  0  0  0  0
    4.5914   -2.4703    0.0000 C   0  0  0  0  0  0  0  0  0  0  0  0
    1.5955   -2.3135    0.0000 C   0  0  0  0  0  0  0  0  0  0  0  0
    2.2766   -3.6500    0.0000 C   0  0  0  0  0  0  0  0  0  0  0  0
    0.2334    0.3594    0.0000 C   0  0  0  0  0  0  0  0  0  0  0  0
   -0.5835   -0.8986    0.0000 C   0  0  0  0  0  0  0  0  0  0  0  0
   -2.0814   -0.8202    0.0000 C   0  0  0  0  0  0  0  0  0  0  0  0
   -2.8983   -2.0783    0.0000 C   0  0  0  0  0  0  0  0  0  0  0  0
   -2.2172   -3.4147    0.0000 O   0  0  0  0  0  0  0  0  0  0  0  0
   -4.3963   -1.9999    0.0000 O   0  0  0  0  0  0  0  0  0  0  0  0
   -2.7625    0.5163    0.0000 C   0  0  0  0  0  0  0  0  0  0  0  0
   -4.2605    0.5947    0.0000 C   0  0  0  0  0  0  0  0  0  0  0  0
   -1.9456    1.7743    0.0000 C   0  0  0  0  0  0  0  0  0  0  0  0
   -2.6267    3.1108    0.0000 N   0  0  0  0  0  0  0  0  0  0  0  0
   -0.4477    1.6959    0.0000 C   0  0  0  0  0  0  0  0  0  0  0  0
    0.3692    2.9540    0.0000 N   0  0  0  0  0  0  0  0  0  0  0  0
    1.8671    2.8756    0.0000 C   0  0  0  0  0  0  0  0  0  0  0  0
    2.5482    1.5391    0.0000 O   0  0  0  0  0  0  0  0  0  0  0  0
    2.6840    4.1336    0.0000 C   0  0  0  0  0  0  0  0  0  0  0  0
  1  2  1  0
  2  3  1  0
  3  4  1  0
  2  5  1  0
  5  6  1  0
  1  7  1  0
  7  8  1  0
  8  9  2  0
  9 10  1  0
 10 11  1  0
 10 12  2  0
  9 13  1  0
 13 14  1  0
 13 15  1  0
 15 16  1  0
 15 17  1  0
 17 18  1  0
 18 19  1  0
 19 20  2  0
 19 21  1  0
 17  7  1  0
M  END
>  <IC50>  (253) 
1.5

>  <cmpdNO>  (253) 
276

$$$$

     RDKit          2D

 21 21  0  0  0  0  0  0  0  0999 V2000
   -2.1799   -3.6982    0.0000 O   0  0  0  0  0  0  0  0  0  0  0  0
   -0.6817   -3.6252    0.0000 C   0  0  0  0  0  0  0  0  0  0  0  0
    0.1306   -4.8863    0.0000 O   0  0  0  0  0  0  0  0  0  0  0  0
    0.0043   -2.2913    0.0000 C   0  0  0  0  0  0  0  0  0  0  0  0
   -0.8080   -1.0302    0.0000 N   0  0  0  0  0  0  0  0  0  0  0  0
   -0.1221    0.3037    0.0000 N   0  0  0  0  0  0  0  0  0  0  0  0
   -0.9343    1.5648    0.0000 C   0  0  0  0  0  0  0  0  0  0  0  0
   -0.2484    2.8987    0.0000 O   0  0  0  0  0  0  0  0  0  0  0  0
   -2.4325    1.4918    0.0000 C   0  0  0  0  0  0  0  0  0  0  0  0
   -3.2448    2.7529    0.0000 C   0  0  0  0  0  0  0  0  0  0  0  0
   -4.7430    2.6799    0.0000 C   0  0  0  0  0  0  0  0  0  0  0  0
   -3.1185    0.1579    0.0000 C   0  0  0  0  0  0  0  0  0  0  0  0
   -4.6167    0.0849    0.0000 C   0  0  0  0  0  0  0  0  0  0  0  0
    1.3762    0.3766    0.0000 C   0  0  0  0  0  0  0  0  0  0  0  0
    2.0621    1.7106    0.0000 N   0  0  0  0  0  0  0  0  0  0  0  0
    3.5604    1.7835    0.0000 C   0  0  0  0  0  0  0  0  0  0  0  0
    4.3726    0.5225    0.0000 O   0  0  0  0  0  0  0  0  0  0  0  0
    4.2463    3.1175    0.0000 C   0  0  0  0  0  0  0  0  0  0  0  0
    2.1884   -0.8844    0.0000 C   0  0  0  0  0  0  0  0  0  0  0  0
    3.6867   -0.8115    0.0000 N   0  0  0  0  0  0  0  0  0  0  0  0
    1.5025   -2.2184    0.0000 C   0  0  0  0  0  0  0  0  0  0  0  0
  1  2  1  0
  2  3  2  0
  2  4  1  0
  4  5  2  0
  5  6  1  0
  6  7  1  0
  7  8  2  0
  7  9  1  0
  9 10  1  0
 10 11  1  0
  9 12  1  0
 12 13  1  0
  6 14  1  0
 14 15  1  0
 15 16  1  0
 16 17  2  0
 16 18  1  0
 14 19  1  0
 19 20  1  0
 19 21  1  0
 21  4  1  0
M  END
>  <IC50>  (254) 
5.998

>  <cmpdNO>  (254) 
277

$$$$

     RDKit          2D

 27 30  0  0  0  0  0  0  0  0999 V2000
    1.1956   -0.2867    0.0000 O   0  0  0  0  0  0  0  0  0  0  0  0
    0.0524    0.6845    0.0000 C   0  0  0  0  0  0  0  0  0  0  0  0
    0.3219    2.1601    0.0000 C   0  0  0  0  0  0  0  0  0  0  0  0
   -0.8212    3.1313    0.0000 C   0  0  0  0  0  0  0  0  0  0  0  0
   -0.5517    4.6069    0.0000 O   0  0  0  0  0  0  0  0  0  0  0  0
   -2.2339    2.6269    0.0000 C   0  0  0  0  0  0  0  0  0  0  0  0
   -3.3770    3.5981    0.0000 O   0  0  0  0  0  0  0  0  0  0  0  0
   -2.5034    1.1513    0.0000 C   0  0  0  0  0  0  0  0  0  0  0  0
   -3.9160    0.6469    0.0000 O   0  0  0  0  0  0  0  0  0  0  0  0
   -1.3602    0.1801    0.0000 C   0  0  0  0  0  0  0  0  0  0  0  0
   -1.6297   -1.2955    0.0000 C   0  0  0  0  0  0  0  0  0  0  0  0
   -3.0424   -1.7999    0.0000 N   0  0  0  0  0  0  0  0  0  0  0  0
   -4.2808   -0.9535    0.0000 C   0  0  0  0  0  0  0  0  0  0  0  0
   -5.4684   -1.8698    0.0000 C   0  0  0  0  0  0  0  0  0  0  0  0
   -4.9640   -3.2824    0.0000 C   0  0  0  0  0  0  0  0  0  0  0  0
   -3.4646   -3.2392    0.0000 C   0  0  0  0  0  0  0  0  0  0  0  0
   -2.5484   -4.4269    0.0000 C   0  0  0  0  0  0  0  0  0  0  0  0
    1.7346    2.6645    0.0000 C   0  0  0  0  0  0  0  0  0  0  0  0
    2.0041    4.1401    0.0000 O   0  0  0  0  0  0  0  0  0  0  0  0
    2.8777    1.6933    0.0000 C   0  0  0  0  0  0  0  0  0  0  0  0
    2.6082    0.2177    0.0000 C   0  0  0  0  0  0  0  0  0  0  0  0
    3.7514   -0.7534    0.0000 C   0  0  0  0  0  0  0  0  0  0  0  0
    3.4819   -2.2290    0.0000 C   0  0  0  0  0  0  0  0  0  0  0  0
    4.6251   -3.2002    0.0000 C   0  0  0  0  0  0  0  0  0  0  0  0
    6.0377   -2.6958    0.0000 C   0  0  0  0  0  0  0  0  0  0  0  0
    6.3072   -1.2202    0.0000 C   0  0  0  0  0  0  0  0  0  0  0  0
    5.1640   -0.2490    0.0000 C   0  0  0  0  0  0  0  0  0  0  0  0
  1  2  1  0
  2  3  2  0
  3  4  1  0
  4  5  1  0
  4  6  2  0
  6  7  1  0
  6  8  1  0
  8  9  1  0
  8 10  2  0
 10 11  1  0
 11 12  1  0
 12 13  1  0
 13 14  1  0
 14 15  1  0
 15 16  1  0
 16 17  1  0
  3 18  1  0
 18 19  2  0
 18 20  1  0
 20 21  2  0
 21 22  1  0
 22 23  2  0
 23 24  1  0
 24 25  2  0
 25 26  1  0
 26 27  2  0
 21  1  1  0
 27 22  1  0
 10  2  1  0
 16 12  1  0
M  END
>  <IC50>  (255) 
99.77

>  <cmpdNO>  (255) 
284

$$$$

     RDKit          2D

 28 31  0  0  0  0  0  0  0  0999 V2000
    1.3563   -0.2897    0.0000 O   0  0  0  0  0  0  0  0  0  0  0  0
    0.2003    0.6662    0.0000 C   0  0  0  0  0  0  0  0  0  0  0  0
    0.4501    2.1452    0.0000 C   0  0  0  0  0  0  0  0  0  0  0  0
   -0.7059    3.1011    0.0000 C   0  0  0  0  0  0  0  0  0  0  0  0
   -0.4560    4.5801    0.0000 O   0  0  0  0  0  0  0  0  0  0  0  0
   -2.1117    2.5779    0.0000 C   0  0  0  0  0  0  0  0  0  0  0  0
   -3.2676    3.5338    0.0000 O   0  0  0  0  0  0  0  0  0  0  0  0
   -2.3615    1.0989    0.0000 C   0  0  0  0  0  0  0  0  0  0  0  0
   -3.6747    0.7858    0.0000 O   0  0  0  0  0  0  0  0  0  0  0  0
   -1.2055    0.1430    0.0000 C   0  0  0  0  0  0  0  0  0  0  0  0
   -1.4553   -1.3361    0.0000 C   0  0  0  0  0  0  0  0  0  0  0  0
   -2.8611   -1.8592    0.0000 N   0  0  0  0  0  0  0  0  0  0  0  0
   -4.1107   -1.0294    0.0000 C   0  0  0  0  0  0  0  0  0  0  0  0
   -5.2860   -1.9614    0.0000 C   0  0  0  0  0  0  0  0  0  0  0  0
   -4.7629   -3.3672    0.0000 O   0  0  0  0  0  0  0  0  0  0  0  0
   -3.2642   -3.3041    0.0000 C   0  0  0  0  0  0  0  0  0  0  0  0
   -2.3322   -4.4794    0.0000 C   0  0  0  0  0  0  0  0  0  0  0  0
   -4.3315    0.3024    0.0000 C   0  0  0  0  0  0  0  0  0  0  0  0
    1.8559    2.6684    0.0000 C   0  0  0  0  0  0  0  0  0  0  0  0
    2.1058    4.1474    0.0000 O   0  0  0  0  0  0  0  0  0  0  0  0
    3.0119    1.7125    0.0000 C   0  0  0  0  0  0  0  0  0  0  0  0
    2.7621    0.2335    0.0000 C   0  0  0  0  0  0  0  0  0  0  0  0
    3.9181   -0.7224    0.0000 C   0  0  0  0  0  0  0  0  0  0  0  0
    3.6683   -2.2015    0.0000 C   0  0  0  0  0  0  0  0  0  0  0  0
    4.8242   -3.1573    0.0000 C   0  0  0  0  0  0  0  0  0  0  0  0
    6.2300   -2.6342    0.0000 C   0  0  0  0  0  0  0  0  0  0  0  0
    6.4799   -1.1551    0.0000 C   0  0  0  0  0  0  0  0  0  0  0  0
    5.3239   -0.1992    0.0000 C   0  0  0  0  0  0  0  0  0  0  0  0
  1  2  1  0
  2  3  2  0
  3  4  1  0
  4  5  1  0
  4  6  2  0
  6  7  1  0
  6  8  1  0
  8  9  1  0
  8 10  2  0
 10 11  1  0
 11 12  1  0
 12 13  1  0
 13 14  1  0
 14 15  1  0
 15 16  1  0
 16 17  1  0
 13 18  1  0
  3 19  1  0
 19 20  2  0
 19 21  1  0
 21 22  2  0
 22 23  1  0
 23 24  2  0
 24 25  1  0
 25 26  2  0
 26 27  1  0
 27 28  2  0
 22  1  1  0
 28 23  1  0
 10  2  1  0
 16 12  1  0
M  END
>  <IC50>  (256) 
591.562

>  <cmpdNO>  (256) 
285

$$$$

     RDKit          2D

 30 33  0  0  0  0  0  0  0  0999 V2000
    1.0776    0.2805    0.0000 O   0  0  0  0  0  0  0  0  0  0  0  0
   -0.1287    1.1719    0.0000 C   0  0  0  0  0  0  0  0  0  0  0  0
    0.0401    2.6624    0.0000 C   0  0  0  0  0  0  0  0  0  0  0  0
    1.4153    3.2614    0.0000 C   0  0  0  0  0  0  0  0  0  0  0  0
    1.5842    4.7519    0.0000 O   0  0  0  0  0  0  0  0  0  0  0  0
    2.6217    2.3700    0.0000 C   0  0  0  0  0  0  0  0  0  0  0  0
    2.4529    0.8795    0.0000 C   0  0  0  0  0  0  0  0  0  0  0  0
    3.6592   -0.0120    0.0000 C   0  0  0  0  0  0  0  0  0  0  0  0
    3.4904   -1.5024    0.0000 C   0  0  0  0  0  0  0  0  0  0  0  0
    4.6967   -2.3939    0.0000 C   0  0  0  0  0  0  0  0  0  0  0  0
    4.5279   -3.8843    0.0000 O   0  0  0  0  0  0  0  0  0  0  0  0
    6.0719   -1.7949    0.0000 C   0  0  0  0  0  0  0  0  0  0  0  0
    7.2783   -2.6863    0.0000 O   0  0  0  0  0  0  0  0  0  0  0  0
    6.2408   -0.3044    0.0000 C   0  0  0  0  0  0  0  0  0  0  0  0
    5.0344    0.5871    0.0000 C   0  0  0  0  0  0  0  0  0  0  0  0
   -1.1662    3.5539    0.0000 C   0  0  0  0  0  0  0  0  0  0  0  0
   -0.9974    5.0443    0.0000 O   0  0  0  0  0  0  0  0  0  0  0  0
   -2.5414    2.9548    0.0000 C   0  0  0  0  0  0  0  0  0  0  0  0
   -2.7103    1.4644    0.0000 C   0  0  0  0  0  0  0  0  0  0  0  0
   -4.0855    0.8654    0.0000 O   0  0  0  0  0  0  0  0  0  0  0  0
   -1.5039    0.5729    0.0000 C   0  0  0  0  0  0  0  0  0  0  0  0
   -1.6728   -0.9175    0.0000 C   0  0  0  0  0  0  0  0  0  0  0  0
   -3.0480   -1.5166    0.0000 N   0  0  0  0  0  0  0  0  0  0  0  0
   -4.2543   -0.6251    0.0000 C   0  0  0  0  0  0  0  0  0  0  0  0
   -5.6295   -1.2241    0.0000 C   0  0  0  0  0  0  0  0  0  0  0  0
   -5.7984   -2.7146    0.0000 C   0  0  0  0  0  0  0  0  0  0  0  0
   -4.5920   -3.6060    0.0000 O   0  0  0  0  0  0  0  0  0  0  0  0
   -3.2168   -3.0070    0.0000 C   0  0  0  0  0  0  0  0  0  0  0  0
   -2.0104   -3.8985    0.0000 C   0  0  0  0  0  0  0  0  0  0  0  0
   -6.8359   -0.3327    0.0000 C   0  0  0  0  0  0  0  0  0  0  0  0
  1  2  1  0
  2  3  2  0
  3  4  1  0
  4  5  2  0
  4  6  1  0
  6  7  2  0
  7  8  1  0
  8  9  2  0
  9 10  1  0
 10 11  1  0
 10 12  2  0
 12 13  1  0
 12 14  1  0
 14 15  2  0
  3 16  1  0
 16 17  1  0
 16 18  2  0
 18 19  1  0
 19 20  1  0
 19 21  2  0
 21 22  1  0
 22 23  1  0
 23 24  1  0
 24 25  1  0
 25 26  1  0
 26 27  1  0
 27 28  1  0
 28 29  1  0
 25 30  1  0
  7  1  1  0
 15  8  1  0
 28 23  1  0
 21  2  1  0
M  END
>  <IC50>  (257) 
43.451

>  <cmpdNO>  (257) 
300

$$$$

     RDKit          2D

 29 32  0  0  0  0  0  0  0  0999 V2000
    1.4782   -0.0275    0.0000 O   0  0  0  0  0  0  0  0  0  0  0  0
    0.4220    1.0376    0.0000 C   0  0  0  0  0  0  0  0  0  0  0  0
    0.8164    2.4848    0.0000 C   0  0  0  0  0  0  0  0  0  0  0  0
    2.2669    2.8669    0.0000 C   0  0  0  0  0  0  0  0  0  0  0  0
    2.6613    4.3142    0.0000 O   0  0  0  0  0  0  0  0  0  0  0  0
    3.3231    1.8018    0.0000 C   0  0  0  0  0  0  0  0  0  0  0  0
    2.9287    0.3546    0.0000 C   0  0  0  0  0  0  0  0  0  0  0  0
    3.9849   -0.7106    0.0000 C   0  0  0  0  0  0  0  0  0  0  0  0
    3.5905   -2.1578    0.0000 C   0  0  0  0  0  0  0  0  0  0  0  0
    4.6467   -3.2230    0.0000 C   0  0  0  0  0  0  0  0  0  0  0  0
    6.0972   -2.8409    0.0000 C   0  0  0  0  0  0  0  0  0  0  0  0
    7.1533   -3.9060    0.0000 O   0  0  0  0  0  0  0  0  0  0  0  0
    6.4915   -1.3937    0.0000 C   0  0  0  0  0  0  0  0  0  0  0  0
    5.4354   -0.3285    0.0000 C   0  0  0  0  0  0  0  0  0  0  0  0
   -0.2398    3.5500    0.0000 C   0  0  0  0  0  0  0  0  0  0  0  0
    0.1546    4.9972    0.0000 O   0  0  0  0  0  0  0  0  0  0  0  0
   -1.6903    3.1679    0.0000 C   0  0  0  0  0  0  0  0  0  0  0  0
   -2.0846    1.7207    0.0000 C   0  0  0  0  0  0  0  0  0  0  0  0
   -3.5352    1.3386    0.0000 O   0  0  0  0  0  0  0  0  0  0  0  0
   -1.0285    0.6555    0.0000 C   0  0  0  0  0  0  0  0  0  0  0  0
   -1.4229   -0.7917    0.0000 C   0  0  0  0  0  0  0  0  0  0  0  0
   -2.8734   -1.1738    0.0000 N   0  0  0  0  0  0  0  0  0  0  0  0
   -3.9295   -0.1086    0.0000 C   0  0  0  0  0  0  0  0  0  0  0  0
   -5.3801   -0.4907    0.0000 C   0  0  0  0  0  0  0  0  0  0  0  0
   -5.7744   -1.9380    0.0000 C   0  0  0  0  0  0  0  0  0  0  0  0
   -4.7183   -3.0031    0.0000 C   0  0  0  0  0  0  0  0  0  0  0  0
   -3.2677   -2.6210    0.0000 C   0  0  0  0  0  0  0  0  0  0  0  0
   -7.2249   -2.3200    0.0000 C   0  0  0  0  0  0  0  0  0  0  0  0
   -8.2811   -1.2549    0.0000 O   0  0  0  0  0  0  0  0  0  0  0  0
  1  2  1  0
  2  3  2  0
  3  4  1  0
  4  5  2  0
  4  6  1  0
  6  7  2  0
  7  8  1  0
  8  9  2  0
  9 10  1  0
 10 11  2  0
 11 12  1  0
 11 13  1  0
 13 14  2  0
  3 15  1  0
 15 16  1  0
 15 17  2  0
 17 18  1  0
 18 19  1  0
 18 20  2  0
 20 21  1  0
 21 22  1  0
 22 23  1  0
 23 24  1  0
 24 25  1  0
 25 26  1  0
 26 27  1  0
 25 28  1  0
 28 29  1  0
  7  1  1  0
 14  8  1  0
 27 22  1  0
 20  2  1  0
M  END
>  <IC50>  (258) 
40.926

>  <cmpdNO>  (258) 
309

$$$$

     RDKit          2D

 19 19  0  0  0  0  0  0  0  0999 V2000
    2.5875   -1.5242    0.0000 S   0  0  0  0  0  0  0  0  0  0  0  0
    1.9091   -0.1864    0.0000 O   0  0  0  0  0  0  0  0  0  0  0  0
    3.2660   -2.8621    0.0000 O   0  0  0  0  0  0  0  0  0  0  0  0
    1.2497   -2.2026    0.0000 N   0  0  0  0  0  0  0  0  0  0  0  0
   -0.0067   -1.3833    0.0000 C   0  0  0  0  0  0  0  0  0  0  0  0
   -1.3445   -2.0617    0.0000 C   0  0  0  0  0  0  0  0  0  0  0  0
   -1.4259   -3.5594    0.0000 N   0  0  0  0  0  0  0  0  0  0  0  0
   -2.6009   -1.2423    0.0000 C   0  0  0  0  0  0  0  0  0  0  0  0
   -2.5196    0.2555    0.0000 C   0  0  0  0  0  0  0  0  0  0  0  0
   -1.1817    0.9339    0.0000 C   0  0  0  0  0  0  0  0  0  0  0  0
    0.0747    0.1145    0.0000 C   0  0  0  0  0  0  0  0  0  0  0  0
    1.4125    0.7929    0.0000 O   0  0  0  0  0  0  0  0  0  0  0  0
    1.4939    2.2907    0.0000 C   0  0  0  0  0  0  0  0  0  0  0  0
    2.8317    2.9691    0.0000 C   0  0  0  0  0  0  0  0  0  0  0  0
    2.9131    4.4669    0.0000 C   0  0  0  0  0  0  0  0  0  0  0  0
   -3.7760    1.0749    0.0000 C   0  0  0  0  0  0  0  0  0  0  0  0
   -3.6946    2.5727    0.0000 O   0  0  0  0  0  0  0  0  0  0  0  0
   -5.1138    0.3965    0.0000 O   0  0  0  0  0  0  0  0  0  0  0  0
    3.9254   -0.8458    0.0000 C   0  0  0  0  0  0  0  0  0  0  0  0
  1  2  2  0
  1  3  2  0
  1  4  1  0
  4  5  1  0
  5  6  1  0
  6  7  1  0
  6  8  1  0
  8  9  1  0
  9 10  2  0
 10 11  1  0
 11 12  1  0
 12 13  1  0
 13 14  1  0
 14 15  1  0
  9 16  1  0
 16 17  1  0
 16 18  2  0
  1 19  1  0
 11  5  1  0
M  END
>  <IC50>  (259) 
25.003

>  <cmpdNO>  (259) 
315

$$$$

     RDKit          2D

 28 30  0  0  0  0  0  0  0  0999 V2000
    2.3807    0.6431    0.0000 O   0  0  0  0  0  0  0  0  0  0  0  0
    2.7112    2.1062    0.0000 C   0  0  0  0  0  0  0  0  0  0  0  0
    1.6093    3.1240    0.0000 C   0  0  0  0  0  0  0  0  0  0  0  0
    0.1770    2.6786    0.0000 O   0  0  0  0  0  0  0  0  0  0  0  0
    4.1436    2.5515    0.0000 C   0  0  0  0  0  0  0  0  0  0  0  0
    4.4741    4.0147    0.0000 O   0  0  0  0  0  0  0  0  0  0  0  0
    5.2454    1.5338    0.0000 C   0  0  0  0  0  0  0  0  0  0  0  0
    6.6778    1.9791    0.0000 O   0  0  0  0  0  0  0  0  0  0  0  0
    4.9149    0.0706    0.0000 C   0  0  0  0  0  0  0  0  0  0  0  0
    6.0168   -0.9472    0.0000 O   0  0  0  0  0  0  0  0  0  0  0  0
    3.4826   -0.3747    0.0000 C   0  0  0  0  0  0  0  0  0  0  0  0
    3.1521   -1.8379    0.0000 O   0  0  0  0  0  0  0  0  0  0  0  0
    1.7197   -2.2832    0.0000 C   0  0  0  0  0  0  0  0  0  0  0  0
    0.6179   -1.2654    0.0000 C   0  0  0  0  0  0  0  0  0  0  0  0
   -0.8145   -1.7108    0.0000 C   0  0  0  0  0  0  0  0  0  0  0  0
   -1.1450   -3.1739    0.0000 C   0  0  0  0  0  0  0  0  0  0  0  0
   -0.0431   -4.1917    0.0000 C   0  0  0  0  0  0  0  0  0  0  0  0
   -0.3736   -5.6549    0.0000 O   0  0  0  0  0  0  0  0  0  0  0  0
    1.3892   -3.7464    0.0000 C   0  0  0  0  0  0  0  0  0  0  0  0
   -1.9164   -0.6930    0.0000 C   0  0  0  0  0  0  0  0  0  0  0  0
   -3.3487   -1.1384    0.0000 C   0  0  0  0  0  0  0  0  0  0  0  0
   -4.4506   -0.1206    0.0000 C   0  0  0  0  0  0  0  0  0  0  0  0
   -4.1201    1.3425    0.0000 C   0  0  0  0  0  0  0  0  0  0  0  0
   -5.2220    2.3603    0.0000 C   0  0  0  0  0  0  0  0  0  0  0  0
   -6.6543    1.9150    0.0000 C   0  0  0  0  0  0  0  0  0  0  0  0
   -7.7562    2.9328    0.0000 O   0  0  0  0  0  0  0  0  0  0  0  0
   -6.9848    0.4518    0.0000 C   0  0  0  0  0  0  0  0  0  0  0  0
   -5.8830   -0.5659    0.0000 C   0  0  0  0  0  0  0  0  0  0  0  0
  1  2  1  0
  2  3  1  0
  3  4  1  0
  2  5  1  0
  5  6  1  0
  5  7  1  0
  7  8  1  0
  7  9  1  0
  9 10  1  0
  9 11  1  0
 11 12  1  0
 12 13  1  0
 13 14  2  0
 14 15  1  0
 15 16  2  0
 16 17  1  0
 17 18  1  0
 17 19  2  0
 15 20  1  0
 20 21  2  0
 21 22  1  0
 22 23  2  0
 23 24  1  0
 24 25  2  0
 25 26  1  0
 25 27  1  0
 27 28  2  0
 11  1  1  0
 19 13  1  0
 28 22  1  0
M  END
>  <IC50>  (260) 
110.79

>  <cmpdNO>  (260) 
316

$$$$

     RDKit          2D

 34 38  0  0  0  0  0  0  0  0999 V2000
    2.8959   -2.6412    0.0000 O   0  0  0  0  0  0  0  0  0  0  0  0
    1.5073   -3.2084    0.0000 C   0  0  0  0  0  0  0  0  0  0  0  0
    0.5387   -2.0629    0.0000 C   0  0  0  0  0  0  0  0  0  0  0  0
    1.3288   -0.7879    0.0000 C   0  0  0  0  0  0  0  0  0  0  0  0
    2.7856   -1.1453    0.0000 C   0  0  0  0  0  0  0  0  0  0  0  0
    3.9310   -0.1767    0.0000 C   0  0  0  0  0  0  0  0  0  0  0  0
    5.3425   -0.6844    0.0000 C   0  0  0  0  0  0  0  0  0  0  0  0
    6.4879    0.2841    0.0000 C   0  0  0  0  0  0  0  0  0  0  0  0
    6.2219    1.7603    0.0000 C   0  0  0  0  0  0  0  0  0  0  0  0
    7.3673    2.7288    0.0000 O   0  0  0  0  0  0  0  0  0  0  0  0
    4.8104    2.2680    0.0000 C   0  0  0  0  0  0  0  0  0  0  0  0
    3.6650    1.2995    0.0000 C   0  0  0  0  0  0  0  0  0  0  0  0
    0.7617    0.6008    0.0000 C   0  0  0  0  0  0  0  0  0  0  0  0
    1.6807    1.7863    0.0000 C   0  0  0  0  0  0  0  0  0  0  0  0
    1.1135    3.1749    0.0000 C   0  0  0  0  0  0  0  0  0  0  0  0
    2.0325    4.3604    0.0000 O   0  0  0  0  0  0  0  0  0  0  0  0
   -0.3727    3.3781    0.0000 C   0  0  0  0  0  0  0  0  0  0  0  0
   -1.2917    2.1926    0.0000 C   0  0  0  0  0  0  0  0  0  0  0  0
   -2.7779    2.3957    0.0000 O   0  0  0  0  0  0  0  0  0  0  0  0
   -0.7245    0.8039    0.0000 C   0  0  0  0  0  0  0  0  0  0  0  0
   -0.9375   -2.3290    0.0000 C   0  0  0  0  0  0  0  0  0  0  0  0
   -1.4452   -3.7405    0.0000 C   0  0  0  0  0  0  0  0  0  0  0  0
   -0.4767   -4.8859    0.0000 C   0  0  0  0  0  0  0  0  0  0  0  0
   -0.9844   -6.2973    0.0000 O   0  0  0  0  0  0  0  0  0  0  0  0
    0.9996   -4.6198    0.0000 C   0  0  0  0  0  0  0  0  0  0  0  0
   -1.9060   -1.1836    0.0000 C   0  0  0  0  0  0  0  0  0  0  0  0
   -3.3822   -1.4496    0.0000 C   0  0  0  0  0  0  0  0  0  0  0  0
   -4.3507   -0.3042    0.0000 C   0  0  0  0  0  0  0  0  0  0  0  0
   -3.8430    1.1073    0.0000 C   0  0  0  0  0  0  0  0  0  0  0  0
   -4.8115    2.2527    0.0000 C   0  0  0  0  0  0  0  0  0  0  0  0
   -6.2878    1.9866    0.0000 C   0  0  0  0  0  0  0  0  0  0  0  0
   -7.2563    3.1320    0.0000 O   0  0  0  0  0  0  0  0  0  0  0  0
   -6.7955    0.5752    0.0000 C   0  0  0  0  0  0  0  0  0  0  0  0
   -5.8269   -0.5703    0.0000 C   0  0  0  0  0  0  0  0  0  0  0  0
  1  2  1  0
  2  3  2  0
  3  4  1  0
  4  5  1  0
  5  6  1  0
  6  7  2  0
  7  8  1  0
  8  9  2  0
  9 10  1  0
  9 11  1  0
 11 12  2  0
  4 13  1  0
 13 14  2  0
 14 15  1  0
 15 16  1  0
 15 17  2  0
 17 18  1  0
 18 19  1  0
 18 20  2  0
  3 21  1  0
 21 22  2  0
 22 23  1  0
 23 24  1  0
 23 25  2  0
 21 26  1  0
 26 27  2  0
 27 28  1  0
 28 29  2  0
 29 30  1  0
 30 31  2  0
 31 32  1  0
 31 33  1  0
 33 34  2  0
  5  1  1  0
 12  6  1  0
 20 13  1  0
 34 28  1  0
 25  2  1  0
M  END
>  <IC50>  (261) 
88.54

>  <cmpdNO>  (261) 
317

$$$$

     RDKit          2D

 35 40  0  0  0  0  0  0  0  0999 V2000
   -2.9115   -2.6234    0.0000 O   0  0  0  0  0  0  0  0  0  0  0  0
   -1.5629   -3.2802    0.0000 C   0  0  0  0  0  0  0  0  0  0  0  0
   -1.1486   -4.7218    0.0000 C   0  0  0  0  0  0  0  0  0  0  0  0
    0.3071   -5.0838    0.0000 C   0  0  0  0  0  0  0  0  0  0  0  0
    0.7214   -6.5255    0.0000 O   0  0  0  0  0  0  0  0  0  0  0  0
    1.3484   -4.0042    0.0000 C   0  0  0  0  0  0  0  0  0  0  0  0
    0.9341   -2.5625    0.0000 C   0  0  0  0  0  0  0  0  0  0  0  0
   -0.5216   -2.2005    0.0000 C   0  0  0  0  0  0  0  0  0  0  0  0
   -1.2266   -0.8765    0.0000 C   0  0  0  0  0  0  0  0  0  0  0  0
   -0.5901    0.4817    0.0000 C   0  0  0  0  0  0  0  0  0  0  0  0
    0.8687    0.8310    0.0000 C   0  0  0  0  0  0  0  0  0  0  0  0
    2.0513   -0.0918    0.0000 C   0  0  0  0  0  0  0  0  0  0  0  0
    2.0671   -1.5917    0.0000 C   0  0  0  0  0  0  0  0  0  0  0  0
    3.4254   -2.2282    0.0000 O   0  0  0  0  0  0  0  0  0  0  0  0
    3.3958    0.5733    0.0000 C   0  0  0  0  0  0  0  0  0  0  0  0
    4.6440   -0.2586    0.0000 C   0  0  0  0  0  0  0  0  0  0  0  0
    5.9885    0.4065    0.0000 C   0  0  0  0  0  0  0  0  0  0  0  0
    6.0848    1.9034    0.0000 C   0  0  0  0  0  0  0  0  0  0  0  0
    7.4293    2.5685    0.0000 O   0  0  0  0  0  0  0  0  0  0  0  0
    4.8365    2.7352    0.0000 C   0  0  0  0  0  0  0  0  0  0  0  0
    3.4920    2.0702    0.0000 C   0  0  0  0  0  0  0  0  0  0  0  0
    1.2957    2.2689    0.0000 C   0  0  0  0  0  0  0  0  0  0  0  0
    2.7544    2.6181    0.0000 O   0  0  0  0  0  0  0  0  0  0  0  0
    0.2638    3.3576    0.0000 C   0  0  0  0  0  0  0  0  0  0  0  0
   -1.1950    3.0084    0.0000 C   0  0  0  0  0  0  0  0  0  0  0  0
   -2.2268    4.0971    0.0000 O   0  0  0  0  0  0  0  0  0  0  0  0
   -1.6219    1.5705    0.0000 C   0  0  0  0  0  0  0  0  0  0  0  0
   -2.7036   -1.1379    0.0000 C   0  0  0  0  0  0  0  0  0  0  0  0
   -3.7833   -0.0965    0.0000 C   0  0  0  0  0  0  0  0  0  0  0  0
   -3.4213    1.3591    0.0000 C   0  0  0  0  0  0  0  0  0  0  0  0
   -4.5009    2.4005    0.0000 C   0  0  0  0  0  0  0  0  0  0  0  0
   -5.9425    1.9861    0.0000 C   0  0  0  0  0  0  0  0  0  0  0  0
   -7.0222    3.0275    0.0000 O   0  0  0  0  0  0  0  0  0  0  0  0
   -6.3046    0.5305    0.0000 C   0  0  0  0  0  0  0  0  0  0  0  0
   -5.2249   -0.5109    0.0000 C   0  0  0  0  0  0  0  0  0  0  0  0
  1  2  1  0
  2  3  2  0
  3  4  1  0
  4  5  1  0
  4  6  2  0
  6  7  1  0
  7  8  2  0
  8  9  1  0
  9 10  1  0
 10 11  2  0
 11 12  1  0
 12 13  1  0
 13 14  1  0
 12 15  1  0
 15 16  2  0
 16 17  1  0
 17 18  2  0
 18 19  1  0
 18 20  1  0
 20 21  2  0
 11 22  1  0
 22 23  1  0
 22 24  2  0
 24 25  1  0
 25 26  1  0
 25 27  2  0
  9 28  1  0
 28 29  1  0
 29 30  2  0
 30 31  1  0
 31 32  2  0
 32 33  1  0
 32 34  1  0
 34 35  2  0
 28  1  1  0
 35 29  1  0
  8  2  1  0
 27 10  1  0
 13  7  1  0
 21 15  1  0
M  END
>  <IC50>  (262) 
234.61

>  <cmpdNO>  (262) 
318

$$$$

     RDKit          2D

 69 80  0  0  0  0  0  0  0  0999 V2000
    7.5153    2.8816    0.0000 O   0  0  0  0  0  0  0  0  0  0  0  0
    6.0155    2.8589    0.0000 C   0  0  0  0  0  0  0  0  0  0  0  0
    5.5736    1.4255    0.0000 C   0  0  0  0  0  0  0  0  0  0  0  0
    4.1113    1.0915    0.0000 C   0  0  0  0  0  0  0  0  0  0  0  0
    3.0908    2.1909    0.0000 C   0  0  0  0  0  0  0  0  0  0  0  0
    1.7299    1.5602    0.0000 O   0  0  0  0  0  0  0  0  0  0  0  0
    1.9092    0.0710    0.0000 C   0  0  0  0  0  0  0  0  0  0  0  0
    3.3810   -0.2187    0.0000 C   0  0  0  0  0  0  0  0  0  0  0  0
    0.8098   -0.9495    0.0000 C   0  0  0  0  0  0  0  0  0  0  0  0
   -0.6237   -0.5075    0.0000 C   0  0  0  0  0  0  0  0  0  0  0  0
   -1.7231   -1.5280    0.0000 C   0  0  0  0  0  0  0  0  0  0  0  0
   -3.1565   -1.0860    0.0000 C   0  0  0  0  0  0  0  0  0  0  0  0
   -4.1766   -2.1858    0.0000 C   0  0  0  0  0  0  0  0  0  0  0  0
   -3.5663   -3.5560    0.0000 C   0  0  0  0  0  0  0  0  0  0  0  0
   -4.4478   -4.7697    0.0000 C   0  0  0  0  0  0  0  0  0  0  0  0
   -3.8375   -6.1399    0.0000 O   0  0  0  0  0  0  0  0  0  0  0  0
   -5.9396   -4.6131    0.0000 C   0  0  0  0  0  0  0  0  0  0  0  0
   -6.5499   -3.2429    0.0000 C   0  0  0  0  0  0  0  0  0  0  0  0
   -7.9766   -2.7795    0.0000 O   0  0  0  0  0  0  0  0  0  0  0  0
   -7.9768   -1.2795    0.0000 C   0  0  0  0  0  0  0  0  0  0  0  0
   -6.5503   -0.8158    0.0000 C   0  0  0  0  0  0  0  0  0  0  0  0
   -6.0757    0.5988    0.0000 C   0  0  0  0  0  0  0  0  0  0  0  0
   -4.6794    1.1470    0.0000 C   0  0  0  0  0  0  0  0  0  0  0  0
   -3.3803    0.3972    0.0000 C   0  0  0  0  0  0  0  0  0  0  0  0
   -2.1411    1.2423    0.0000 C   0  0  0  0  0  0  0  0  0  0  0  0
   -2.2534    2.7381    0.0000 C   0  0  0  0  0  0  0  0  0  0  0  0
   -1.0141    3.5833    0.0000 C   0  0  0  0  0  0  0  0  0  0  0  0
    0.3374    2.9327    0.0000 C   0  0  0  0  0  0  0  0  0  0  0  0
    1.5766    3.7778    0.0000 O   0  0  0  0  0  0  0  0  0  0  0  0
    0.4497    1.4369    0.0000 C   0  0  0  0  0  0  0  0  0  0  0  0
   -0.7895    0.5917    0.0000 C   0  0  0  0  0  0  0  0  0  0  0  0
   -4.4561    2.6303    0.0000 C   0  0  0  0  0  0  0  0  0  0  0  0
   -3.0599    3.1785    0.0000 O   0  0  0  0  0  0  0  0  0  0  0  0
   -5.6290    3.5653    0.0000 C   0  0  0  0  0  0  0  0  0  0  0  0
   -7.0252    3.0171    0.0000 C   0  0  0  0  0  0  0  0  0  0  0  0
   -8.1981    3.9522    0.0000 O   0  0  0  0  0  0  0  0  0  0  0  0
   -7.2486    1.5338    0.0000 C   0  0  0  0  0  0  0  0  0  0  0  0
   -5.6684   -2.0292    0.0000 C   0  0  0  0  0  0  0  0  0  0  0  0
   -9.1904   -0.3980    0.0000 C   0  0  0  0  0  0  0  0  0  0  0  0
  -10.5607   -1.0083    0.0000 C   0  0  0  0  0  0  0  0  0  0  0  0
  -11.7743   -0.1268    0.0000 C   0  0  0  0  0  0  0  0  0  0  0  0
  -11.6177    1.3650    0.0000 C   0  0  0  0  0  0  0  0  0  0  0  0
  -12.8314    2.2465    0.0000 O   0  0  0  0  0  0  0  0  0  0  0  0
  -10.2475    1.9753    0.0000 C   0  0  0  0  0  0  0  0  0  0  0  0
   -9.0339    1.0938    0.0000 C   0  0  0  0  0  0  0  0  0  0  0  0
   -1.3891   -2.9903    0.0000 C   0  0  0  0  0  0  0  0  0  0  0  0
   -2.4885   -4.0107    0.0000 O   0  0  0  0  0  0  0  0  0  0  0  0
    0.0443   -3.4322    0.0000 C   0  0  0  0  0  0  0  0  0  0  0  0
    1.1438   -2.4118    0.0000 C   0  0  0  0  0  0  0  0  0  0  0  0
    3.5328    3.6244    0.0000 C   0  0  0  0  0  0  0  0  0  0  0  0
    2.5123    4.7238    0.0000 O   0  0  0  0  0  0  0  0  0  0  0  0
    4.9951    3.9584    0.0000 C   0  0  0  0  0  0  0  0  0  0  0  0
    6.8003    0.5623    0.0000 C   0  0  0  0  0  0  0  0  0  0  0  0
    8.0004    1.4622    0.0000 C   0  0  0  0  0  0  0  0  0  0  0  0
    9.4338    1.0202    0.0000 C   0  0  0  0  0  0  0  0  0  0  0  0
    9.7678   -0.4421    0.0000 C   0  0  0  0  0  0  0  0  0  0  0  0
   11.2012   -0.8840    0.0000 C   0  0  0  0  0  0  0  0  0  0  0  0
   12.3006    0.1364    0.0000 C   0  0  0  0  0  0  0  0  0  0  0  0
   13.7341   -0.3055    0.0000 O   0  0  0  0  0  0  0  0  0  0  0  0
   11.9666    1.5987    0.0000 C   0  0  0  0  0  0  0  0  0  0  0  0
   10.5332    2.0407    0.0000 C   0  0  0  0  0  0  0  0  0  0  0  0
    6.8230   -0.9376    0.0000 C   0  0  0  0  0  0  0  0  0  0  0  0
    5.5354   -1.7071    0.0000 C   0  0  0  0  0  0  0  0  0  0  0  0
    5.5581   -3.2069    0.0000 C   0  0  0  0  0  0  0  0  0  0  0  0
    4.2705   -3.9765    0.0000 O   0  0  0  0  0  0  0  0  0  0  0  0
    6.8683   -3.9372    0.0000 C   0  0  0  0  0  0  0  0  0  0  0  0
    8.1558   -3.1677    0.0000 C   0  0  0  0  0  0  0  0  0  0  0  0
    9.4661   -3.8980    0.0000 O   0  0  0  0  0  0  0  0  0  0  0  0
    8.1332   -1.6679    0.0000 C   0  0  0  0  0  0  0  0  0  0  0  0
  1  2  1  0
  2  3  2  0
  3  4  1  0
  4  5  2  0
  5  6  1  0
  6  7  1  0
  7  8  2  0
  7  9  1  0
  9 10  2  0
 10 11  1  0
 11 12  1  0
 12 13  1  0
 13 14  2  0
 14 15  1  0
 15 16  1  0
 15 17  2  0
 17 18  1  0
 18 19  1  0
 19 20  1  0
 20 21  1  0
 21 22  1  0
 22 23  2  0
 23 24  1  0
 24 25  1  0
 25 26  2  0
 26 27  1  0
 27 28  2  0
 28 29  1  0
 28 30  1  0
 30 31  2  0
 23 32  1  0
 32 33  1  0
 32 34  2  0
 34 35  1  0
 35 36  1  0
 35 37  2  0
 21 38  1  0
 20 39  1  0
 39 40  2  0
 40 41  1  0
 41 42  2  0
 42 43  1  0
 42 44  1  0
 44 45  2  0
 11 46  2  0
 46 47  1  0
 46 48  1  0
 48 49  2  0
  5 50  1  0
 50 51  1  0
 50 52  2  0
  3 53  1  0
 53 54  1  0
 54 55  1  0
 55 56  2  0
 56 57  1  0
 57 58  2  0
 58 59  1  0
 58 60  1  0
 60 61  2  0
 53 62  1  0
 62 63  2  0
 63 64  1  0
 64 65  1  0
 64 66  2  0
 66 67  1  0
 67 68  1  0
 67 69  2  0
 54  1  1  0
 61 55  1  0
 69 62  1  0
 52  2  1  0
  8  4  1  0
 49  9  1  0
 24 12  1  0
 31 25  1  0
 45 39  1  0
 38 13  1  0
 38 18  2  0
 37 22  1  0
M  END
>  <IC50>  (263) 
48.44

>  <cmpdNO>  (263) 
319

$$$$

     RDKit          2D

 51 59  0  0  0  0  0  0  0  0999 V2000
    3.5474   -3.3974    0.0000 O   0  0  0  0  0  0  0  0  0  0  0  0
    2.0474   -3.3905    0.0000 C   0  0  0  0  0  0  0  0  0  0  0  0
    0.8270   -4.3970    0.0000 C   0  0  0  0  0  0  0  0  0  0  0  0
   -0.6171   -3.9913    0.0000 C   0  0  0  0  0  0  0  0  0  0  0  0
   -1.6905   -5.0391    0.0000 O   0  0  0  0  0  0  0  0  0  0  0  0
   -0.9878   -2.5378    0.0000 C   0  0  0  0  0  0  0  0  0  0  0  0
    0.1464   -1.5561    0.0000 C   0  0  0  0  0  0  0  0  0  0  0  0
   -0.4368   -0.1741    0.0000 C   0  0  0  0  0  0  0  0  0  0  0  0
   -1.9314   -0.3017    0.0000 C   0  0  0  0  0  0  0  0  0  0  0  0
   -2.2719   -1.7626    0.0000 C   0  0  0  0  0  0  0  0  0  0  0  0
   -3.6539   -2.3457    0.0000 C   0  0  0  0  0  0  0  0  0  0  0  0
   -4.8499   -1.4405    0.0000 C   0  0  0  0  0  0  0  0  0  0  0  0
   -6.2319   -2.0237    0.0000 C   0  0  0  0  0  0  0  0  0  0  0  0
   -7.4280   -1.1184    0.0000 O   0  0  0  0  0  0  0  0  0  0  0  0
   -6.4179   -3.5121    0.0000 C   0  0  0  0  0  0  0  0  0  0  0  0
   -5.2218   -4.4174    0.0000 C   0  0  0  0  0  0  0  0  0  0  0  0
   -5.4078   -5.9058    0.0000 O   0  0  0  0  0  0  0  0  0  0  0  0
   -3.8398   -3.8342    0.0000 C   0  0  0  0  0  0  0  0  0  0  0  0
   -2.9131    0.8324    0.0000 C   0  0  0  0  0  0  0  0  0  0  0  0
   -2.4217    2.2497    0.0000 C   0  0  0  0  0  0  0  0  0  0  0  0
   -3.4034    3.3838    0.0000 C   0  0  0  0  0  0  0  0  0  0  0  0
   -4.8765    3.1007    0.0000 C   0  0  0  0  0  0  0  0  0  0  0  0
   -5.8582    4.2348    0.0000 O   0  0  0  0  0  0  0  0  0  0  0  0
   -5.3678    1.6834    0.0000 C   0  0  0  0  0  0  0  0  0  0  0  0
   -4.3861    0.5493    0.0000 C   0  0  0  0  0  0  0  0  0  0  0  0
    0.2801    1.1435    0.0000 C   0  0  0  0  0  0  0  0  0  0  0  0
    1.7572    1.4045    0.0000 C   0  0  0  0  0  0  0  0  0  0  0  0
    2.8822    0.4124    0.0000 C   0  0  0  0  0  0  0  0  0  0  0  0
    2.8080   -1.0858    0.0000 C   0  0  0  0  0  0  0  0  0  0  0  0
    1.5905   -1.9618    0.0000 C   0  0  0  0  0  0  0  0  0  0  0  0
    4.0175   -1.9730    0.0000 C   0  0  0  0  0  0  0  0  0  0  0  0
    5.4462   -1.5161    0.0000 C   0  0  0  0  0  0  0  0  0  0  0  0
    6.5563   -2.5249    0.0000 C   0  0  0  0  0  0  0  0  0  0  0  0
    7.9850   -2.0679    0.0000 C   0  0  0  0  0  0  0  0  0  0  0  0
    8.3036   -0.6021    0.0000 C   0  0  0  0  0  0  0  0  0  0  0  0
    9.7323   -0.1452    0.0000 O   0  0  0  0  0  0  0  0  0  0  0  0
    7.1935    0.4067    0.0000 C   0  0  0  0  0  0  0  0  0  0  0  0
    5.7648   -0.0503    0.0000 C   0  0  0  0  0  0  0  0  0  0  0  0
    4.3039    0.8907    0.0000 C   0  0  0  0  0  0  0  0  0  0  0  0
    4.6006    2.3611    0.0000 C   0  0  0  0  0  0  0  0  0  0  0  0
    6.0223    2.8393    0.0000 O   0  0  0  0  0  0  0  0  0  0  0  0
    3.4755    3.3532    0.0000 C   0  0  0  0  0  0  0  0  0  0  0  0
    2.0538    2.8749    0.0000 C   0  0  0  0  0  0  0  0  0  0  0  0
    0.9288    3.8670    0.0000 O   0  0  0  0  0  0  0  0  0  0  0  0
   -0.5960    2.3610    0.0000 C   0  0  0  0  0  0  0  0  0  0  0  0
    0.0204    3.7285    0.0000 C   0  0  0  0  0  0  0  0  0  0  0  0
   -0.8557    4.9461    0.0000 C   0  0  0  0  0  0  0  0  0  0  0  0
   -2.3482    4.7962    0.0000 C   0  0  0  0  0  0  0  0  0  0  0  0
   -3.2243    6.0137    0.0000 O   0  0  0  0  0  0  0  0  0  0  0  0
   -2.9646    3.4287    0.0000 C   0  0  0  0  0  0  0  0  0  0  0  0
   -2.0885    2.2111    0.0000 C   0  0  0  0  0  0  0  0  0  0  0  0
  1  2  1  0
  2  3  1  0
  3  4  1  0
  4  5  1  0
  4  6  2  0
  6  7  1  0
  7  8  1  0
  8  9  1  6
  9 10  1  0
 10 11  1  0
 11 12  2  0
 12 13  1  0
 13 14  1  0
 13 15  2  0
 15 16  1  0
 16 17  1  0
 16 18  2  0
  9 19  1  0
 19 20  2  0
 20 21  1  0
 21 22  2  0
 22 23  1  0
 22 24  1  0
 24 25  2  0
  8 26  1  0
 26 27  1  0
 27 28  2  0
 28 29  1  0
 29 30  1  0
 29 31  1  0
 31 32  1  0
 32 33  2  0
 33 34  1  0
 34 35  2  0
 35 36  1  0
 35 37  1  0
 37 38  2  0
 28 39  1  0
 39 40  2  0
 40 41  1  0
 40 42  1  0
 42 43  2  0
 43 44  1  0
 26 45  1  0
 45 46  2  0
 46 47  1  0
 47 48  2  0
 48 49  1  0
 48 50  1  0
 50 51  2  0
 31  1  1  0
 38 32  1  0
 51 45  1  0
  2 30  2  0
 10  6  1  0
 18 11  1  0
 25 19  1  0
 43 27  1  0
 30  7  1  0
M  END
>  <IC50>  (264) 
38.15

>  <cmpdNO>  (264) 
320

$$$$

     RDKit          2D

 68 78  0  0  0  0  0  0  0  0999 V2000
   -6.7442    3.0136    0.0000 O   0  0  0  0  0  0  0  0  0  0  0  0
   -5.2710    3.2961    0.0000 C   0  0  0  0  0  0  0  0  0  0  0  0
   -4.5471    1.9824    0.0000 C   0  0  0  0  0  0  0  0  0  0  0  0
   -5.5728    0.8879    0.0000 C   0  0  0  0  0  0  0  0  0  0  0  0
   -6.9307    1.5252    0.0000 C   0  0  0  0  0  0  0  0  0  0  0  0
   -8.2445    0.8013    0.0000 C   0  0  0  0  0  0  0  0  0  0  0  0
   -9.5283    1.5770    0.0000 C   0  0  0  0  0  0  0  0  0  0  0  0
  -10.8420    0.8531    0.0000 C   0  0  0  0  0  0  0  0  0  0  0  0
  -10.8719   -0.6466    0.0000 C   0  0  0  0  0  0  0  0  0  0  0  0
  -12.1857   -1.3705    0.0000 O   0  0  0  0  0  0  0  0  0  0  0  0
   -9.5881   -1.4224    0.0000 C   0  0  0  0  0  0  0  0  0  0  0  0
   -8.2744   -0.6984    0.0000 C   0  0  0  0  0  0  0  0  0  0  0  0
   -5.2903   -0.5853    0.0000 C   0  0  0  0  0  0  0  0  0  0  0  0
   -3.8733   -1.0772    0.0000 C   0  0  0  0  0  0  0  0  0  0  0  0
   -3.5907   -2.5503    0.0000 C   0  0  0  0  0  0  0  0  0  0  0  0
   -2.1737   -3.0422    0.0000 O   0  0  0  0  0  0  0  0  0  0  0  0
   -4.7252   -3.5316    0.0000 C   0  0  0  0  0  0  0  0  0  0  0  0
   -6.1423   -3.0397    0.0000 C   0  0  0  0  0  0  0  0  0  0  0  0
   -7.2768   -4.0209    0.0000 O   0  0  0  0  0  0  0  0  0  0  0  0
   -6.4248   -1.5665    0.0000 C   0  0  0  0  0  0  0  0  0  0  0  0
   -3.0474    1.9524    0.0000 C   0  0  0  0  0  0  0  0  0  0  0  0
   -2.2716    3.2362    0.0000 C   0  0  0  0  0  0  0  0  0  0  0  0
   -2.9956    4.5500    0.0000 C   0  0  0  0  0  0  0  0  0  0  0  0
   -2.2198    5.8338    0.0000 O   0  0  0  0  0  0  0  0  0  0  0  0
   -4.4953    4.5799    0.0000 C   0  0  0  0  0  0  0  0  0  0  0  0
   -2.3235    0.6387    0.0000 C   0  0  0  0  0  0  0  0  0  0  0  0
   -0.8351    0.4522    0.0000 C   0  0  0  0  0  0  0  0  0  0  0  0
    0.2994    1.4334    0.0000 C   0  0  0  0  0  0  0  0  0  0  0  0
    1.7165    0.9415    0.0000 C   0  0  0  0  0  0  0  0  0  0  0  0
    1.9990   -0.5316    0.0000 C   0  0  0  0  0  0  0  0  0  0  0  0
    0.8645   -1.5129    0.0000 C   0  0  0  0  0  0  0  0  0  0  0  0
   -0.5526   -1.0210    0.0000 C   0  0  0  0  0  0  0  0  0  0  0  0
   -1.8663   -1.7449    0.0000 O   0  0  0  0  0  0  0  0  0  0  0  0
   -2.9608   -0.7192    0.0000 C   0  0  0  0  0  0  0  0  0  0  0  0
   -4.4339   -1.0017    0.0000 C   0  0  0  0  0  0  0  0  0  0  0  0
   -5.4152    0.1328    0.0000 C   0  0  0  0  0  0  0  0  0  0  0  0
   -6.8884   -0.1497    0.0000 C   0  0  0  0  0  0  0  0  0  0  0  0
   -7.3803   -1.5668    0.0000 C   0  0  0  0  0  0  0  0  0  0  0  0
   -8.8534   -1.8493    0.0000 O   0  0  0  0  0  0  0  0  0  0  0  0
   -6.3990   -2.7013    0.0000 C   0  0  0  0  0  0  0  0  0  0  0  0
   -4.9258   -2.4188    0.0000 C   0  0  0  0  0  0  0  0  0  0  0  0
    2.8510    1.9228    0.0000 C   0  0  0  0  0  0  0  0  0  0  0  0
    4.2680    1.4309    0.0000 C   0  0  0  0  0  0  0  0  0  0  0  0
    5.4025    2.4122    0.0000 C   0  0  0  0  0  0  0  0  0  0  0  0
    6.8196    1.9203    0.0000 C   0  0  0  0  0  0  0  0  0  0  0  0
    7.9541    2.9015    0.0000 C   0  0  0  0  0  0  0  0  0  0  0  0
    9.2379    2.1257    0.0000 O   0  0  0  0  0  0  0  0  0  0  0  0
    8.8969    0.6650    0.0000 C   0  0  0  0  0  0  0  0  0  0  0  0
    7.4022    0.5380    0.0000 C   0  0  0  0  0  0  0  0  0  0  0  0
    6.6265   -0.7458    0.0000 C   0  0  0  0  0  0  0  0  0  0  0  0
    5.1268   -0.7159    0.0000 C   0  0  0  0  0  0  0  0  0  0  0  0
    4.3510   -1.9997    0.0000 C   0  0  0  0  0  0  0  0  0  0  0  0
    2.8513   -1.9697    0.0000 O   0  0  0  0  0  0  0  0  0  0  0  0
    5.0749   -3.3134    0.0000 C   0  0  0  0  0  0  0  0  0  0  0  0
    6.5746   -3.3433    0.0000 C   0  0  0  0  0  0  0  0  0  0  0  0
    7.2986   -4.6571    0.0000 O   0  0  0  0  0  0  0  0  0  0  0  0
    7.3504   -2.0595    0.0000 C   0  0  0  0  0  0  0  0  0  0  0  0
    9.8781   -0.4695    0.0000 C   0  0  0  0  0  0  0  0  0  0  0  0
    9.3862   -1.8865    0.0000 C   0  0  0  0  0  0  0  0  0  0  0  0
   10.3675   -3.0211    0.0000 C   0  0  0  0  0  0  0  0  0  0  0  0
   11.8406   -2.7385    0.0000 C   0  0  0  0  0  0  0  0  0  0  0  0
   12.8219   -3.8730    0.0000 O   0  0  0  0  0  0  0  0  0  0  0  0
   12.3325   -1.3215    0.0000 C   0  0  0  0  0  0  0  0  0  0  0  0
   11.3513   -0.1869    0.0000 C   0  0  0  0  0  0  0  0  0  0  0  0
    7.6716    4.3747    0.0000 C   0  0  0  0  0  0  0  0  0  0  0  0
    6.2545    4.8666    0.0000 C   0  0  0  0  0  0  0  0  0  0  0  0
    5.9720    6.3397    0.0000 O   0  0  0  0  0  0  0  0  0  0  0  0
    5.1200    3.8853    0.0000 C   0  0  0  0  0  0  0  0  0  0  0  0
  1  2  1  0
  2  3  2  0
  3  4  1  0
  4  5  1  0
  5  6  1  0
  6  7  2  0
  7  8  1  0
  8  9  2  0
  9 10  1  0
  9 11  1  0
 11 12  2  0
  4 13  1  0
 13 14  2  0
 14 15  1  0
 15 16  1  0
 15 17  2  0
 17 18  1  0
 18 19  1  0
 18 20  2  0
  3 21  1  0
 21 22  2  0
 22 23  1  0
 23 24  1  0
 23 25  2  0
 21 26  1  0
 26 27  1  0
 27 28  2  0
 28 29  1  0
 29 30  2  0
 30 31  1  0
 31 32  2  0
 32 33  1  0
 33 34  1  0
 34 35  1  0
 35 36  2  0
 36 37  1  0
 37 38  2  0
 38 39  1  0
 38 40  1  0
 40 41  2  0
 29 42  1  0
 42 43  2  0
 43 44  1  0
 44 45  1  0
 45 46  2  0
 46 47  1  0
 47 48  1  0
 48 49  1  0
 49 50  1  0
 50 51  2  0
 51 52  1  0
 52 53  1  0
 52 54  2  0
 54 55  1  0
 55 56  1  0
 55 57  2  0
 48 58  1  0
 58 59  2  0
 59 60  1  0
 60 61  2  0
 61 62  1  0
 61 63  1  0
 63 64  2  0
 46 65  1  0
 65 66  2  0
 66 67  1  0
 66 68  1  0
  5  1  1  0
 12  6  1  0
 20 13  1  0
 34 26  1  0
 41 35  1  0
 68 44  2  0
 25  2  1  0
 32 27  1  0
 49 45  1  0
 57 50  1  0
 64 58  1  0
M  END
>  <IC50>  (265) 
41.68

>  <cmpdNO>  (265) 
321

$$$$

     RDKit          2D

 68 79  0  0  0  0  0  0  0  0999 V2000
   -4.3654   -3.6603    0.0000 O   0  0  0  0  0  0  0  0  0  0  0  0
   -2.8863   -3.4103    0.0000 C   0  0  0  0  0  0  0  0  0  0  0  0
   -2.6671   -1.9264    0.0000 C   0  0  0  0  0  0  0  0  0  0  0  0
   -1.2723   -1.3744    0.0000 C   0  0  0  0  0  0  0  0  0  0  0  0
   -0.0969   -2.3062    0.0000 C   0  0  0  0  0  0  0  0  0  0  0  0
    1.1526   -1.4763    0.0000 C   0  0  0  0  0  0  0  0  0  0  0  0
    0.7493   -0.0315    0.0000 C   0  0  0  0  0  0  0  0  0  0  0  0
   -0.7493    0.0315    0.0000 C   0  0  0  0  0  0  0  0  0  0  0  0
   -1.1526    1.4763    0.0000 C   0  0  0  0  0  0  0  0  0  0  0  0
    0.0969    2.3062    0.0000 C   0  0  0  0  0  0  0  0  0  0  0  0
    1.2723    1.3744    0.0000 C   0  0  0  0  0  0  0  0  0  0  0  0
    2.6671    1.9264    0.0000 C   0  0  0  0  0  0  0  0  0  0  0  0
    2.8863    3.4103    0.0000 C   0  0  0  0  0  0  0  0  0  0  0  0
    4.3654    3.6603    0.0000 O   0  0  0  0  0  0  0  0  0  0  0  0
    5.0602    2.3309    0.0000 C   0  0  0  0  0  0  0  0  0  0  0  0
    4.0106    1.2593    0.0000 C   0  0  0  0  0  0  0  0  0  0  0  0
    4.2606   -0.2197    0.0000 C   0  0  0  0  0  0  0  0  0  0  0  0
    3.1047   -1.1757    0.0000 C   0  0  0  0  0  0  0  0  0  0  0  0
    3.3547   -2.6547    0.0000 C   0  0  0  0  0  0  0  0  0  0  0  0
    2.4645   -3.8620    0.0000 O   0  0  0  0  0  0  0  0  0  0  0  0
    4.7606   -3.1777    0.0000 C   0  0  0  0  0  0  0  0  0  0  0  0
    5.9164   -2.2217    0.0000 C   0  0  0  0  0  0  0  0  0  0  0  0
    7.3223   -2.7447    0.0000 O   0  0  0  0  0  0  0  0  0  0  0  0
    5.6664   -0.7427    0.0000 C   0  0  0  0  0  0  0  0  0  0  0  0
    6.5440    2.1117    0.0000 C   0  0  0  0  0  0  0  0  0  0  0  0
    7.0961    0.7170    0.0000 C   0  0  0  0  0  0  0  0  0  0  0  0
    8.5800    0.4977    0.0000 C   0  0  0  0  0  0  0  0  0  0  0  0
    9.5118    1.6731    0.0000 C   0  0  0  0  0  0  0  0  0  0  0  0
   10.9957    1.4539    0.0000 O   0  0  0  0  0  0  0  0  0  0  0  0
    8.9598    3.0678    0.0000 C   0  0  0  0  0  0  0  0  0  0  0  0
    7.4759    3.2871    0.0000 C   0  0  0  0  0  0  0  0  0  0  0  0
    1.7109    4.3422    0.0000 C   0  0  0  0  0  0  0  0  0  0  0  0
    0.3162    3.7901    0.0000 C   0  0  0  0  0  0  0  0  0  0  0  0
   -0.8593    4.7220    0.0000 O   0  0  0  0  0  0  0  0  0  0  0  0
   -2.5584    1.9993    0.0000 C   0  0  0  0  0  0  0  0  0  0  0  0
   -2.8084    3.4783    0.0000 C   0  0  0  0  0  0  0  0  0  0  0  0
   -4.2143    4.0013    0.0000 C   0  0  0  0  0  0  0  0  0  0  0  0
   -5.3702    3.0453    0.0000 C   0  0  0  0  0  0  0  0  0  0  0  0
   -6.7761    3.5683    0.0000 O   0  0  0  0  0  0  0  0  0  0  0  0
   -5.1202    1.5662    0.0000 C   0  0  0  0  0  0  0  0  0  0  0  0
   -3.7143    1.0432    0.0000 C   0  0  0  0  0  0  0  0  0  0  0  0
    2.5584   -1.9993    0.0000 C   0  0  0  0  0  0  0  0  0  0  0  0
    3.7143   -1.0432    0.0000 C   0  0  0  0  0  0  0  0  0  0  0  0
    5.1202   -1.5662    0.0000 C   0  0  0  0  0  0  0  0  0  0  0  0
    5.3702   -3.0453    0.0000 C   0  0  0  0  0  0  0  0  0  0  0  0
    6.7761   -3.5683    0.0000 O   0  0  0  0  0  0  0  0  0  0  0  0
    4.2143   -4.0013    0.0000 C   0  0  0  0  0  0  0  0  0  0  0  0
    2.8084   -3.4783    0.0000 C   0  0  0  0  0  0  0  0  0  0  0  0
   -0.3162   -3.7901    0.0000 C   0  0  0  0  0  0  0  0  0  0  0  0
    0.8593   -4.7220    0.0000 O   0  0  0  0  0  0  0  0  0  0  0  0
   -1.7109   -4.3422    0.0000 C   0  0  0  0  0  0  0  0  0  0  0  0
   -4.0106   -1.2593    0.0000 C   0  0  0  0  0  0  0  0  0  0  0  0
   -5.0602   -2.3309    0.0000 C   0  0  0  0  0  0  0  0  0  0  0  0
   -6.5440   -2.1117    0.0000 C   0  0  0  0  0  0  0  0  0  0  0  0
   -7.0961   -0.7170    0.0000 C   0  0  0  0  0  0  0  0  0  0  0  0
   -8.5800   -0.4977    0.0000 C   0  0  0  0  0  0  0  0  0  0  0  0
   -9.5118   -1.6731    0.0000 C   0  0  0  0  0  0  0  0  0  0  0  0
  -10.9957   -1.4539    0.0000 O   0  0  0  0  0  0  0  0  0  0  0  0
   -8.9598   -3.0678    0.0000 C   0  0  0  0  0  0  0  0  0  0  0  0
   -7.4759   -3.2871    0.0000 C   0  0  0  0  0  0  0  0  0  0  0  0
   -4.2606    0.2197    0.0000 C   0  0  0  0  0  0  0  0  0  0  0  0
   -3.1047    1.1757    0.0000 C   0  0  0  0  0  0  0  0  0  0  0  0
   -3.3547    2.6547    0.0000 C   0  0  0  0  0  0  0  0  0  0  0  0
   -2.4645    3.8620    0.0000 O   0  0  0  0  0  0  0  0  0  0  0  0
   -4.7606    3.1777    0.0000 C   0  0  0  0  0  0  0  0  0  0  0  0
   -5.9164    2.2217    0.0000 C   0  0  0  0  0  0  0  0  0  0  0  0
   -7.3223    2.7447    0.0000 O   0  0  0  0  0  0  0  0  0  0  0  0
   -5.6664    0.7427    0.0000 C   0  0  0  0  0  0  0  0  0  0  0  0
  1  2  1  0
  2  3  2  0
  3  4  1  0
  4  5  2  0
  5  6  1  0
  6  7  1  0
  7  8  1  0
  8  9  1  0
  9 10  1  0
 10 11  2  0
 11 12  1  0
 12 13  2  0
 13 14  1  0
 14 15  1  0
 15 16  1  0
 16 17  1  0
 17 18  2  0
 18 19  1  0
 19 20  1  0
 19 21  2  0
 21 22  1  0
 22 23  1  0
 22 24  2  0
 15 25  1  0
 25 26  2  0
 26 27  1  0
 27 28  2  0
 28 29  1  0
 28 30  1  0
 30 31  2  0
 13 32  1  0
 32 33  2  0
 33 34  1  0
  9 35  1  0
 35 36  2  0
 36 37  1  0
 37 38  2  0
 38 39  1  0
 38 40  1  0
 40 41  2  0
  6 42  1  0
 42 43  2  0
 43 44  1  0
 44 45  2  0
 45 46  1  0
 45 47  1  0
 47 48  2  0
  5 49  1  0
 49 50  1  0
 49 51  2  0
  3 52  1  0
 52 53  1  0
 53 54  1  0
 54 55  2  0
 55 56  1  0
 56 57  2  0
 57 58  1  0
 57 59  1  0
 59 60  2  0
 52 61  1  0
 61 62  2  0
 62 63  1  0
 63 64  1  0
 63 65  2  0
 65 66  1  0
 66 67  1  0
 66 68  2  0
 53  1  1  0
 60 54  1  0
 68 61  1  0
 51  2  1  0
  8  4  1  0
 33 10  1  0
 41 35  1  0
 48 42  1  0
 11  7  1  0
 16 12  1  0
 24 17  1  0
 31 25  1  0
M  END
>  <IC50>  (266) 
40.26

>  <cmpdNO>  (266) 
322

$$$$

     RDKit          2D

 26 27  0  0  0  0  0  0  0  0999 V2000
   -4.8355    0.9286    0.0000 O   0  0  0  0  0  0  0  0  0  0  0  0
   -5.8599    2.0243    0.0000 C   0  0  0  0  0  0  0  0  0  0  0  0
   -3.3744    1.2680    0.0000 C   0  0  0  0  0  0  0  0  0  0  0  0
   -2.9377    2.7030    0.0000 C   0  0  0  0  0  0  0  0  0  0  0  0
   -1.4766    3.0424    0.0000 C   0  0  0  0  0  0  0  0  0  0  0  0
   -0.4521    1.9467    0.0000 C   0  0  0  0  0  0  0  0  0  0  0  0
    1.0090    2.2861    0.0000 C   0  0  0  0  0  0  0  0  0  0  0  0
    1.4456    3.7211    0.0000 O   0  0  0  0  0  0  0  0  0  0  0  0
    2.0334    1.1904    0.0000 C   0  0  0  0  0  0  0  0  0  0  0  0
    3.4945    1.5298    0.0000 C   0  0  0  0  0  0  0  0  0  0  0  0
    4.5190    0.4341    0.0000 C   0  0  0  0  0  0  0  0  0  0  0  0
    4.0823   -1.0010    0.0000 C   0  0  0  0  0  0  0  0  0  0  0  0
    5.1068   -2.0966    0.0000 C   0  0  0  0  0  0  0  0  0  0  0  0
    6.5679   -1.7573    0.0000 C   0  0  0  0  0  0  0  0  0  0  0  0
    7.5923   -2.8529    0.0000 O   0  0  0  0  0  0  0  0  0  0  0  0
    7.0045   -0.3222    0.0000 C   0  0  0  0  0  0  0  0  0  0  0  0
    5.9801    0.7734    0.0000 C   0  0  0  0  0  0  0  0  0  0  0  0
   -0.8888    0.5117    0.0000 C   0  0  0  0  0  0  0  0  0  0  0  0
    0.1356   -0.5840    0.0000 O   0  0  0  0  0  0  0  0  0  0  0  0
   -2.3499    0.1723    0.0000 C   0  0  0  0  0  0  0  0  0  0  0  0
   -2.7866   -1.2627    0.0000 C   0  0  0  0  0  0  0  0  0  0  0  0
   -4.2477   -1.6021    0.0000 C   0  0  0  0  0  0  0  0  0  0  0  0
   -5.2721   -0.5064    0.0000 O   0  0  0  0  0  0  0  0  0  0  0  0
   -4.6843   -3.0371    0.0000 C   0  0  0  0  0  0  0  0  0  0  0  0
   -6.1454   -3.3765    0.0000 C   0  0  0  0  0  0  0  0  0  0  0  0
   -3.6599   -4.1328    0.0000 C   0  0  0  0  0  0  0  0  0  0  0  0
  1  2  1  0
  1  3  1  0
  3  4  2  0
  4  5  1  0
  5  6  2  0
  6  7  1  0
  7  8  2  0
  7  9  1  0
  9 10  2  0
 10 11  1  0
 11 12  2  0
 12 13  1  0
 13 14  2  0
 14 15  1  0
 14 16  1  0
 16 17  2  0
  6 18  1  0
 18 19  1  0
 18 20  2  0
 20 21  1  0
 21 22  1  0
 22 23  1  0
 22 24  1  0
 24 25  1  0
 24 26  2  0
 20  3  1  0
 17 11  1  0
M  END
>  <IC50>  (267) 
12.3

>  <cmpdNO>  (267) 
1001

$$$$

     RDKit          2D

 22 22  0  0  0  0  0  0  0  0999 V2000
    2.1506   -0.2471    0.0000 O   0  0  0  0  0  0  0  0  0  0  0  0
    2.2640   -1.7428    0.0000 C   0  0  0  0  0  0  0  0  0  0  0  0
    3.6161   -2.3924    0.0000 C   0  0  0  0  0  0  0  0  0  0  0  0
    3.7296   -3.8881    0.0000 C   0  0  0  0  0  0  0  0  0  0  0  0
    1.0255   -2.5889    0.0000 C   0  0  0  0  0  0  0  0  0  0  0  0
    1.1390   -4.0846    0.0000 C   0  0  0  0  0  0  0  0  0  0  0  0
    0.7985    0.4025    0.0000 C   0  0  0  0  0  0  0  0  0  0  0  0
   -0.4401   -0.4437    0.0000 C   0  0  0  0  0  0  0  0  0  0  0  0
   -1.7921    0.2059    0.0000 C   0  0  0  0  0  0  0  0  0  0  0  0
   -1.9056    1.7016    0.0000 C   0  0  0  0  0  0  0  0  0  0  0  0
   -0.6671    2.5477    0.0000 C   0  0  0  0  0  0  0  0  0  0  0  0
   -0.7805    4.0434    0.0000 N   0  0  0  0  0  0  0  0  0  0  0  0
    0.6850    1.8982    0.0000 C   0  0  0  0  0  0  0  0  0  0  0  0
    1.9236    2.7443    0.0000 N   0  0  0  0  0  0  0  0  0  0  0  0
    3.2756    2.0947    0.0000 C   0  0  0  0  0  0  0  0  0  0  0  0
    3.3891    0.5990    0.0000 O   0  0  0  0  0  0  0  0  0  0  0  0
    4.5142    2.9409    0.0000 C   0  0  0  0  0  0  0  0  0  0  0  0
   -3.0307   -0.6402    0.0000 C   0  0  0  0  0  0  0  0  0  0  0  0
   -4.3828    0.0093    0.0000 O   0  0  0  0  0  0  0  0  0  0  0  0
   -5.6213   -0.8368    0.0000 C   0  0  0  0  0  0  0  0  0  0  0  0
   -6.9734   -0.1872    0.0000 C   0  0  0  0  0  0  0  0  0  0  0  0
   -2.9172   -2.1359    0.0000 O   0  0  0  0  0  0  0  0  0  0  0  0
  1  2  1  0
  2  3  1  0
  3  4  1  0
  2  5  1  0
  5  6  1  0
  1  7  1  0
  7  8  1  0
  8  9  2  0
  9 10  1  0
 10 11  1  0
 11 12  1  0
 11 13  1  0
 13 14  1  0
 14 15  1  0
 15 16  2  0
 15 17  1  0
  9 18  1  0
 18 19  1  0
 19 20  1  0
 20 21  1  0
 18 22  2  0
 13  7  1  0
M  END
>  <IC50>  (268) 
0.002

>  <cmpdNO>  (268) 
1002

$$$$

     RDKit          2D

 23 23  0  0  0  0  0  0  0  0999 V2000
   -1.2752   -1.2351    0.0000 O   0  0  0  0  0  0  0  0  0  0  0  0
   -1.1080    0.2555    0.0000 C   0  0  0  0  0  0  0  0  0  0  0  0
   -2.3154    1.1457    0.0000 C   0  0  0  0  0  0  0  0  0  0  0  0
   -2.1482    2.6363    0.0000 O   0  0  0  0  0  0  0  0  0  0  0  0
   -3.6899    0.5451    0.0000 C   0  0  0  0  0  0  0  0  0  0  0  0
   -3.8571   -0.9455    0.0000 O   0  0  0  0  0  0  0  0  0  0  0  0
   -4.8972    1.4353    0.0000 C   0  0  0  0  0  0  0  0  0  0  0  0
   -6.2718    0.8347    0.0000 O   0  0  0  0  0  0  0  0  0  0  0  0
    0.2665    0.8561    0.0000 C   0  0  0  0  0  0  0  0  0  0  0  0
    0.4337    2.3467    0.0000 N   0  0  0  0  0  0  0  0  0  0  0  0
    1.8083    2.9472    0.0000 C   0  0  0  0  0  0  0  0  0  0  0  0
    3.0156    2.0571    0.0000 O   0  0  0  0  0  0  0  0  0  0  0  0
    1.9755    4.4379    0.0000 C   0  0  0  0  0  0  0  0  0  0  0  0
    1.4739   -0.0341    0.0000 C   0  0  0  0  0  0  0  0  0  0  0  0
    2.8484    0.5665    0.0000 N   0  0  0  0  0  0  0  0  0  0  0  0
    4.0558   -0.3237    0.0000 C   0  0  0  0  0  0  0  0  0  0  0  0
    5.4303    0.2769    0.0000 N   0  0  0  0  0  0  0  0  0  0  0  0
    3.8886   -1.8143    0.0000 N   0  0  0  0  0  0  0  0  0  0  0  0
    1.3067   -1.5247    0.0000 C   0  0  0  0  0  0  0  0  0  0  0  0
   -0.0679   -2.1252    0.0000 C   0  0  0  0  0  0  0  0  0  0  0  0
   -0.2351   -3.6159    0.0000 C   0  0  0  0  0  0  0  0  0  0  0  0
   -1.6096   -4.2164    0.0000 O   0  0  0  0  0  0  0  0  0  0  0  0
    0.9723   -4.5060    0.0000 O   0  0  0  0  0  0  0  0  0  0  0  0
  1  2  1  0
  2  3  1  0
  3  4  1  0
  3  5  1  0
  5  6  1  0
  5  7  1  0
  7  8  1  0
  2  9  1  0
  9 10  1  0
 10 11  1  0
 11 12  2  0
 11 13  1  0
  9 14  1  0
 14 15  1  0
 15 16  1  0
 16 17  1  0
 16 18  2  0
 14 19  1  0
 19 20  2  0
 20 21  1  0
 21 22  1  0
 21 23  2  0
 20  1  1  0
M  END
>  <IC50>  (269) 
0.001

>  <cmpdNO>  (269) 
1003

$$$$

     RDKit          2D

 28 30  0  0  0  0  0  0  0  0999 V2000
    8.1550   -3.1545    0.0000 Cl  0  0  0  0  0  0  0  0  0  0  0  0
    7.8264   -1.6909    0.0000 C   0  0  0  0  0  0  0  0  0  0  0  0
    6.3946   -1.2437    0.0000 C   0  0  0  0  0  0  0  0  0  0  0  0
    6.0661    0.2199    0.0000 C   0  0  0  0  0  0  0  0  0  0  0  0
    7.1693    1.2362    0.0000 C   0  0  0  0  0  0  0  0  0  0  0  0
    8.6010    0.7890    0.0000 C   0  0  0  0  0  0  0  0  0  0  0  0
    8.9296   -0.6746    0.0000 C   0  0  0  0  0  0  0  0  0  0  0  0
    4.6343    0.6671    0.0000 C   0  0  0  0  0  0  0  0  0  0  0  0
    3.4309   -0.2284    0.0000 C   0  0  0  0  0  0  0  0  0  0  0  0
    2.2074    0.6394    0.0000 C   0  0  0  0  0  0  0  0  0  0  0  0
    2.6546    2.0712    0.0000 C   0  0  0  0  0  0  0  0  0  0  0  0
    4.1545    2.0883    0.0000 C   0  0  0  0  0  0  0  0  0  0  0  0
    0.7862    0.1596    0.0000 C   0  0  0  0  0  0  0  0  0  0  0  0
    0.4911   -1.3110    0.0000 O   0  0  0  0  0  0  0  0  0  0  0  0
   -0.3399    1.1506    0.0000 N   0  0  0  0  0  0  0  0  0  0  0  0
   -1.7611    0.6708    0.0000 C   0  0  0  0  0  0  0  0  0  0  0  0
   -2.0562   -0.7999    0.0000 S   0  0  0  0  0  0  0  0  0  0  0  0
   -2.8872    1.6617    0.0000 N   0  0  0  0  0  0  0  0  0  0  0  0
   -4.3084    1.1820    0.0000 C   0  0  0  0  0  0  0  0  0  0  0  0
   -5.4345    2.1729    0.0000 N   0  0  0  0  0  0  0  0  0  0  0  0
   -6.8557    1.6931    0.0000 C   0  0  0  0  0  0  0  0  0  0  0  0
   -7.1508    0.2224    0.0000 C   0  0  0  0  0  0  0  0  0  0  0  0
   -6.0247   -0.7685    0.0000 C   0  0  0  0  0  0  0  0  0  0  0  0
   -6.3198   -2.2392    0.0000 O   0  0  0  0  0  0  0  0  0  0  0  0
   -7.7411   -2.7189    0.0000 C   0  0  0  0  0  0  0  0  0  0  0  0
   -8.0362   -4.1896    0.0000 C   0  0  0  0  0  0  0  0  0  0  0  0
   -4.6035   -0.2887    0.0000 N   0  0  0  0  0  0  0  0  0  0  0  0
   -7.9818    2.6840    0.0000 C   0  0  0  0  0  0  0  0  0  0  0  0
  1  2  1  0
  2  3  2  0
  3  4  1  0
  4  5  2  0
  5  6  1  0
  6  7  2  0
  4  8  1  0
  8  9  1  0
  9 10  1  0
 10 11  2  0
 11 12  1  0
 10 13  1  0
 13 14  2  0
 13 15  1  0
 15 16  1  0
 16 17  2  0
 16 18  1  0
 18 19  1  0
 19 20  2  0
 20 21  1  0
 21 22  2  0
 22 23  1  0
 23 24  1  0
 24 25  1  0
 25 26  1  0
 23 27  2  0
 21 28  1  0
  7  2  1  0
  8 12  2  0
 27 19  1  0
M  END
>  <IC50>  (270) 
1.65

>  <cmpdNO>  (270) 
1004

$$$$

     RDKit          2D

 30 32  0  0  0  0  0  0  0  0999 V2000
    8.9461   -2.7833    0.0000 Cl  0  0  0  0  0  0  0  0  0  0  0  0
    8.5057   -1.3494    0.0000 C   0  0  0  0  0  0  0  0  0  0  0  0
    7.0437   -1.0138    0.0000 C   0  0  0  0  0  0  0  0  0  0  0  0
    6.6033    0.4200    0.0000 C   0  0  0  0  0  0  0  0  0  0  0  0
    7.6249    1.5184    0.0000 C   0  0  0  0  0  0  0  0  0  0  0  0
    9.0869    1.1829    0.0000 C   0  0  0  0  0  0  0  0  0  0  0  0
    9.5273   -0.2510    0.0000 C   0  0  0  0  0  0  0  0  0  0  0  0
    5.1413    0.7556    0.0000 C   0  0  0  0  0  0  0  0  0  0  0  0
    4.0105   -0.2300    0.0000 C   0  0  0  0  0  0  0  0  0  0  0  0
    2.7238    0.5409    0.0000 C   0  0  0  0  0  0  0  0  0  0  0  0
    3.0593    2.0029    0.0000 C   0  0  0  0  0  0  0  0  0  0  0  0
    4.5534    2.1356    0.0000 C   0  0  0  0  0  0  0  0  0  0  0  0
    1.3438   -0.0469    0.0000 C   0  0  0  0  0  0  0  0  0  0  0  0
    1.1629   -1.5360    0.0000 O   0  0  0  0  0  0  0  0  0  0  0  0
    0.1447    0.8542    0.0000 N   0  0  0  0  0  0  0  0  0  0  0  0
   -1.2353    0.2664    0.0000 C   0  0  0  0  0  0  0  0  0  0  0  0
   -1.4162   -1.2227    0.0000 S   0  0  0  0  0  0  0  0  0  0  0  0
   -2.4345    1.1675    0.0000 N   0  0  0  0  0  0  0  0  0  0  0  0
   -3.8145    0.5797    0.0000 C   0  0  0  0  0  0  0  0  0  0  0  0
   -5.0136    1.4808    0.0000 N   0  0  0  0  0  0  0  0  0  0  0  0
   -6.3936    0.8930    0.0000 C   0  0  0  0  0  0  0  0  0  0  0  0
   -7.5927    1.7941    0.0000 O   0  0  0  0  0  0  0  0  0  0  0  0
   -7.4118    3.2832    0.0000 C   0  0  0  0  0  0  0  0  0  0  0  0
   -8.6109    4.1844    0.0000 C   0  0  0  0  0  0  0  0  0  0  0  0
   -6.5745   -0.5961    0.0000 C   0  0  0  0  0  0  0  0  0  0  0  0
   -5.3753   -1.4973    0.0000 C   0  0  0  0  0  0  0  0  0  0  0  0
   -5.5562   -2.9863    0.0000 O   0  0  0  0  0  0  0  0  0  0  0  0
   -6.9362   -3.5742    0.0000 C   0  0  0  0  0  0  0  0  0  0  0  0
   -7.1171   -5.0633    0.0000 C   0  0  0  0  0  0  0  0  0  0  0  0
   -3.9953   -0.9094    0.0000 N   0  0  0  0  0  0  0  0  0  0  0  0
  1  2  1  0
  2  3  2  0
  3  4  1  0
  4  5  2  0
  5  6  1  0
  6  7  2  0
  4  8  1  0
  8  9  1  0
  9 10  1  0
 10 11  2  0
 11 12  1  0
 10 13  1  0
 13 14  2  0
 13 15  1  0
 15 16  1  0
 16 17  2  0
 16 18  1  0
 18 19  1  0
 19 20  2  0
 20 21  1  0
 21 22  1  0
 22 23  1  0
 23 24  1  0
 21 25  2  0
 25 26  1  0
 26 27  1  0
 27 28  1  0
 28 29  1  0
 26 30  2  0
  7  2  1  0
  8 12  2  0
 30 19  1  0
M  END
>  <IC50>  (271) 
0.08

>  <cmpdNO>  (271) 
1005

$$$$

     RDKit          2D

 26 28  0  0  0  0  0  0  0  0999 V2000
    7.7962   -2.8092    0.0000 Cl  0  0  0  0  0  0  0  0  0  0  0  0
    7.3523   -1.3764    0.0000 C   0  0  0  0  0  0  0  0  0  0  0  0
    5.8895   -1.0445    0.0000 C   0  0  0  0  0  0  0  0  0  0  0  0
    5.4456    0.3883    0.0000 C   0  0  0  0  0  0  0  0  0  0  0  0
    6.4645    1.4892    0.0000 C   0  0  0  0  0  0  0  0  0  0  0  0
    7.9273    1.1572    0.0000 C   0  0  0  0  0  0  0  0  0  0  0  0
    8.3712   -0.2756    0.0000 C   0  0  0  0  0  0  0  0  0  0  0  0
    3.9828    0.7203    0.0000 C   0  0  0  0  0  0  0  0  0  0  0  0
    2.8544   -0.2680    0.0000 C   0  0  0  0  0  0  0  0  0  0  0  0
    1.5658    0.4998    0.0000 C   0  0  0  0  0  0  0  0  0  0  0  0
    1.8978    1.9626    0.0000 C   0  0  0  0  0  0  0  0  0  0  0  0
    3.3916    2.0989    0.0000 C   0  0  0  0  0  0  0  0  0  0  0  0
    0.1872   -0.0915    0.0000 C   0  0  0  0  0  0  0  0  0  0  0  0
    0.0100   -1.5810    0.0000 O   0  0  0  0  0  0  0  0  0  0  0  0
   -1.0141    0.8068    0.0000 N   0  0  0  0  0  0  0  0  0  0  0  0
   -2.3926    0.2155    0.0000 C   0  0  0  0  0  0  0  0  0  0  0  0
   -2.5699   -1.2740    0.0000 S   0  0  0  0  0  0  0  0  0  0  0  0
   -3.5940    1.1138    0.0000 N   0  0  0  0  0  0  0  0  0  0  0  0
   -4.9725    0.5225    0.0000 C   0  0  0  0  0  0  0  0  0  0  0  0
   -6.1738    1.4208    0.0000 N   0  0  0  0  0  0  0  0  0  0  0  0
   -7.5524    0.8295    0.0000 C   0  0  0  0  0  0  0  0  0  0  0  0
   -7.7296   -0.6600    0.0000 C   0  0  0  0  0  0  0  0  0  0  0  0
   -6.5283   -1.5582    0.0000 C   0  0  0  0  0  0  0  0  0  0  0  0
   -6.7056   -3.0477    0.0000 O   0  0  0  0  0  0  0  0  0  0  0  0
   -5.1498   -0.9670    0.0000 N   0  0  0  0  0  0  0  0  0  0  0  0
   -8.7537    1.7278    0.0000 C   0  0  0  0  0  0  0  0  0  0  0  0
  1  2  1  0
  2  3  2  0
  3  4  1  0
  4  5  2  0
  5  6  1  0
  6  7  2  0
  4  8  1  0
  8  9  1  0
  9 10  1  0
 10 11  2  0
 11 12  1  0
 10 13  1  0
 13 14  2  0
 13 15  1  0
 15 16  1  0
 16 17  2  0
 16 18  1  0
 18 19  1  0
 19 20  2  0
 20 21  1  0
 21 22  2  0
 22 23  1  0
 23 24  1  0
 23 25  2  0
 21 26  1  0
  7  2  1  0
  8 12  2  0
 25 19  1  0
M  END
>  <IC50>  (272) 
0.32

>  <cmpdNO>  (272) 
1006

$$$$

     RDKit          2D

 28 30  0  0  0  0  0  0  0  0999 V2000
    8.3861   -2.8097    0.0000 Cl  0  0  0  0  0  0  0  0  0  0  0  0
    7.9448   -1.3761    0.0000 C   0  0  0  0  0  0  0  0  0  0  0  0
    6.4826   -1.0414    0.0000 C   0  0  0  0  0  0  0  0  0  0  0  0
    6.0414    0.3922    0.0000 C   0  0  0  0  0  0  0  0  0  0  0  0
    7.0623    1.4912    0.0000 C   0  0  0  0  0  0  0  0  0  0  0  0
    8.5245    1.1565    0.0000 C   0  0  0  0  0  0  0  0  0  0  0  0
    8.9657   -0.2772    0.0000 C   0  0  0  0  0  0  0  0  0  0  0  0
    4.5792    0.7269    0.0000 C   0  0  0  0  0  0  0  0  0  0  0  0
    3.4490   -0.2593    0.0000 C   0  0  0  0  0  0  0  0  0  0  0  0
    2.1618    0.5108    0.0000 C   0  0  0  0  0  0  0  0  0  0  0  0
    2.4965    1.9730    0.0000 C   0  0  0  0  0  0  0  0  0  0  0  0
    3.9905    2.1065    0.0000 C   0  0  0  0  0  0  0  0  0  0  0  0
    0.7821   -0.0779    0.0000 C   0  0  0  0  0  0  0  0  0  0  0  0
    0.6021   -1.5670    0.0000 O   0  0  0  0  0  0  0  0  0  0  0  0
   -0.4175    0.8226    0.0000 N   0  0  0  0  0  0  0  0  0  0  0  0
   -1.7972    0.2339    0.0000 C   0  0  0  0  0  0  0  0  0  0  0  0
   -1.9772   -1.2552    0.0000 S   0  0  0  0  0  0  0  0  0  0  0  0
   -2.9968    1.1344    0.0000 N   0  0  0  0  0  0  0  0  0  0  0  0
   -4.3765    0.5457    0.0000 C   0  0  0  0  0  0  0  0  0  0  0  0
   -5.5761    1.4462    0.0000 N   0  0  0  0  0  0  0  0  0  0  0  0
   -6.9558    0.8575    0.0000 C   0  0  0  0  0  0  0  0  0  0  0  0
   -8.1554    1.7580    0.0000 O   0  0  0  0  0  0  0  0  0  0  0  0
   -7.9754    3.2471    0.0000 C   0  0  0  0  0  0  0  0  0  0  0  0
   -7.1358   -0.6317    0.0000 C   0  0  0  0  0  0  0  0  0  0  0  0
   -5.9362   -1.5321    0.0000 C   0  0  0  0  0  0  0  0  0  0  0  0
   -6.1162   -3.0213    0.0000 O   0  0  0  0  0  0  0  0  0  0  0  0
   -7.4958   -3.6100    0.0000 C   0  0  0  0  0  0  0  0  0  0  0  0
   -4.5565   -0.9435    0.0000 N   0  0  0  0  0  0  0  0  0  0  0  0
  1  2  1  0
  2  3  2  0
  3  4  1  0
  4  5  2  0
  5  6  1  0
  6  7  2  0
  4  8  1  0
  8  9  1  0
  9 10  1  0
 10 11  2  0
 11 12  1  0
 10 13  1  0
 13 14  2  0
 13 15  1  0
 15 16  1  0
 16 17  2  0
 16 18  1  0
 18 19  1  0
 19 20  2  0
 20 21  1  0
 21 22  1  0
 22 23  1  0
 21 24  2  0
 24 25  1  0
 25 26  1  0
 26 27  1  0
 25 28  2  0
  7  2  1  0
  8 12  2  0
 28 19  1  0
M  END
>  <IC50>  (273) 
1.77

>  <cmpdNO>  (273) 
1007

$$$$

     RDKit          2D

 26 28  0  0  0  0  0  0  0  0999 V2000
    7.7962   -2.8092    0.0000 Cl  0  0  0  0  0  0  0  0  0  0  0  0
    7.3523   -1.3764    0.0000 C   0  0  0  0  0  0  0  0  0  0  0  0
    5.8895   -1.0445    0.0000 C   0  0  0  0  0  0  0  0  0  0  0  0
    5.4456    0.3883    0.0000 C   0  0  0  0  0  0  0  0  0  0  0  0
    6.4645    1.4892    0.0000 C   0  0  0  0  0  0  0  0  0  0  0  0
    7.9273    1.1572    0.0000 C   0  0  0  0  0  0  0  0  0  0  0  0
    8.3712   -0.2756    0.0000 C   0  0  0  0  0  0  0  0  0  0  0  0
    3.9828    0.7203    0.0000 C   0  0  0  0  0  0  0  0  0  0  0  0
    2.8544   -0.2680    0.0000 C   0  0  0  0  0  0  0  0  0  0  0  0
    1.5658    0.4998    0.0000 C   0  0  0  0  0  0  0  0  0  0  0  0
    1.8978    1.9626    0.0000 C   0  0  0  0  0  0  0  0  0  0  0  0
    3.3916    2.0989    0.0000 C   0  0  0  0  0  0  0  0  0  0  0  0
    0.1872   -0.0915    0.0000 C   0  0  0  0  0  0  0  0  0  0  0  0
    0.0100   -1.5810    0.0000 O   0  0  0  0  0  0  0  0  0  0  0  0
   -1.0141    0.8068    0.0000 N   0  0  0  0  0  0  0  0  0  0  0  0
   -2.3926    0.2155    0.0000 C   0  0  0  0  0  0  0  0  0  0  0  0
   -2.5699   -1.2740    0.0000 S   0  0  0  0  0  0  0  0  0  0  0  0
   -3.5940    1.1138    0.0000 N   0  0  0  0  0  0  0  0  0  0  0  0
   -4.9725    0.5225    0.0000 C   0  0  0  0  0  0  0  0  0  0  0  0
   -6.1738    1.4208    0.0000 N   0  0  0  0  0  0  0  0  0  0  0  0
   -7.5524    0.8295    0.0000 C   0  0  0  0  0  0  0  0  0  0  0  0
   -8.7537    1.7278    0.0000 Cl  0  0  0  0  0  0  0  0  0  0  0  0
   -7.7296   -0.6600    0.0000 C   0  0  0  0  0  0  0  0  0  0  0  0
   -6.5283   -1.5582    0.0000 C   0  0  0  0  0  0  0  0  0  0  0  0
   -6.7056   -3.0477    0.0000 Cl  0  0  0  0  0  0  0  0  0  0  0  0
   -5.1498   -0.9670    0.0000 N   0  0  0  0  0  0  0  0  0  0  0  0
  1  2  1  0
  2  3  2  0
  3  4  1  0
  4  5  2  0
  5  6  1  0
  6  7  2  0
  4  8  1  0
  8  9  1  0
  9 10  1  0
 10 11  2  0
 11 12  1  0
 10 13  1  0
 13 14  2  0
 13 15  1  0
 15 16  1  0
 16 17  2  0
 16 18  1  0
 18 19  1  0
 19 20  2  0
 20 21  1  0
 21 22  1  0
 21 23  2  0
 23 24  1  0
 24 25  1  0
 24 26  2  0
  7  2  1  0
  8 12  2  0
 26 19  1  0
M  END
>  <IC50>  (274) 
14.5

>  <cmpdNO>  (274) 
1008

$$$$

     RDKit          2D

 28 30  0  0  0  0  0  0  0  0999 V2000
    8.3647   -3.1966    0.0000 Cl  0  0  0  0  0  0  0  0  0  0  0  0
    7.5432   -1.9415    0.0000 C   0  0  0  0  0  0  0  0  0  0  0  0
    6.0456   -2.0254    0.0000 N   0  0  0  0  0  0  0  0  0  0  0  0
    5.2241   -0.7703    0.0000 C   0  0  0  0  0  0  0  0  0  0  0  0
    5.9003    0.5686    0.0000 N   0  0  0  0  0  0  0  0  0  0  0  0
    7.3979    0.6525    0.0000 C   0  0  0  0  0  0  0  0  0  0  0  0
    8.0741    1.9915    0.0000 Cl  0  0  0  0  0  0  0  0  0  0  0  0
    8.2194   -0.6025    0.0000 C   0  0  0  0  0  0  0  0  0  0  0  0
    3.7265   -0.8542    0.0000 N   0  0  0  0  0  0  0  0  0  0  0  0
    2.9050    0.4009    0.0000 C   0  0  0  0  0  0  0  0  0  0  0  0
    3.5812    1.7398    0.0000 S   0  0  0  0  0  0  0  0  0  0  0  0
    1.4073    0.3170    0.0000 N   0  0  0  0  0  0  0  0  0  0  0  0
    0.5859    1.5721    0.0000 C   0  0  0  0  0  0  0  0  0  0  0  0
    1.2620    2.9110    0.0000 O   0  0  0  0  0  0  0  0  0  0  0  0
   -0.9118    1.4882    0.0000 C   0  0  0  0  0  0  0  0  0  0  0  0
   -1.7242    0.2272    0.0000 C   0  0  0  0  0  0  0  0  0  0  0  0
   -3.1745    0.6103    0.0000 C   0  0  0  0  0  0  0  0  0  0  0  0
   -3.2584    2.1079    0.0000 C   0  0  0  0  0  0  0  0  0  0  0  0
   -1.8600    2.6505    0.0000 C   0  0  0  0  0  0  0  0  0  0  0  0
   -4.3368   -0.3379    0.0000 C   0  0  0  0  0  0  0  0  0  0  0  0
   -5.7391    0.1946    0.0000 C   0  0  0  0  0  0  0  0  0  0  0  0
   -6.9014   -0.7535    0.0000 C   0  0  0  0  0  0  0  0  0  0  0  0
   -8.3037   -0.2210    0.0000 N   0  0  0  0  0  0  0  0  0  0  0  0
   -9.4661   -1.1692    0.0000 O   0  0  0  0  0  0  0  0  0  0  0  0
   -8.5437    1.2597    0.0000 O   0  0  0  0  0  0  0  0  0  0  0  0
   -6.6615   -2.2342    0.0000 C   0  0  0  0  0  0  0  0  0  0  0  0
   -5.2592   -2.7667    0.0000 C   0  0  0  0  0  0  0  0  0  0  0  0
   -4.0969   -1.8186    0.0000 C   0  0  0  0  0  0  0  0  0  0  0  0
  1  2  1  0
  2  3  2  0
  3  4  1  0
  4  5  2  0
  5  6  1  0
  6  7  1  0
  6  8  2  0
  4  9  1  0
  9 10  1  0
 10 11  2  0
 10 12  1  0
 12 13  1  0
 13 14  2  0
 13 15  1  0
 15 16  1  0
 16 17  1  0
 17 18  2  0
 18 19  1  0
 17 20  1  0
 20 21  2  0
 21 22  1  0
 22 23  1  0
 23 24  2  0
 23 25  1  0
 22 26  2  0
 26 27  1  0
 27 28  2  0
  8  2  1  0
 15 19  2  0
 28 20  1  0
M  CHG  2  23   1  25  -1
M  END
>  <IC50>  (275) 
1.66

>  <cmpdNO>  (275) 
1009

$$$$

     RDKit          2D

 30 32  0  0  0  0  0  0  0  0999 V2000
    2.9964    1.4051    0.0000 S   0  0  0  0  0  0  0  0  0  0  0  0
    2.2525    0.1026    0.0000 C   0  0  0  0  0  0  0  0  0  0  0  0
    3.0086   -1.1929    0.0000 N   0  0  0  0  0  0  0  0  0  0  0  0
    4.5086   -1.1859    0.0000 C   0  0  0  0  0  0  0  0  0  0  0  0
    5.2647   -2.4814    0.0000 N   0  0  0  0  0  0  0  0  0  0  0  0
    6.7647   -2.4743    0.0000 C   0  0  0  0  0  0  0  0  0  0  0  0
    7.5086   -1.1718    0.0000 C   0  0  0  0  0  0  0  0  0  0  0  0
    6.7525    0.1237    0.0000 C   0  0  0  0  0  0  0  0  0  0  0  0
    7.4964    1.4262    0.0000 O   0  0  0  0  0  0  0  0  0  0  0  0
    8.9964    1.4333    0.0000 C   0  0  0  0  0  0  0  0  0  0  0  0
    9.7403    2.7358    0.0000 C   0  0  0  0  0  0  0  0  0  0  0  0
    5.2525    0.1167    0.0000 N   0  0  0  0  0  0  0  0  0  0  0  0
    7.5208   -3.7698    0.0000 C   0  0  0  0  0  0  0  0  0  0  0  0
    0.7526    0.0956    0.0000 N   0  0  0  0  0  0  0  0  0  0  0  0
   -0.0035    1.3911    0.0000 C   0  0  0  0  0  0  0  0  0  0  0  0
    0.7404    2.6936    0.0000 O   0  0  0  0  0  0  0  0  0  0  0  0
   -1.5035    1.3840    0.0000 C   0  0  0  0  0  0  0  0  0  0  0  0
   -2.3795    0.1664    0.0000 C   0  0  0  0  0  0  0  0  0  0  0  0
   -3.8082    0.6232    0.0000 C   0  0  0  0  0  0  0  0  0  0  0  0
   -3.8153    2.1232    0.0000 C   0  0  0  0  0  0  0  0  0  0  0  0
   -2.3909    2.5934    0.0000 C   0  0  0  0  0  0  0  0  0  0  0  0
   -5.0176   -0.2641    0.0000 C   0  0  0  0  0  0  0  0  0  0  0  0
   -6.3908    0.3395    0.0000 C   0  0  0  0  0  0  0  0  0  0  0  0
   -7.6001   -0.5478    0.0000 C   0  0  0  0  0  0  0  0  0  0  0  0
   -8.9733    0.0558    0.0000 N   0  0  0  0  0  0  0  0  0  0  0  0
  -10.1827   -0.8315    0.0000 O   0  0  0  0  0  0  0  0  0  0  0  0
   -9.1371    1.5469    0.0000 O   0  0  0  0  0  0  0  0  0  0  0  0
   -7.4364   -2.0389    0.0000 C   0  0  0  0  0  0  0  0  0  0  0  0
   -6.0632   -2.6425    0.0000 C   0  0  0  0  0  0  0  0  0  0  0  0
   -4.8538   -1.7552    0.0000 C   0  0  0  0  0  0  0  0  0  0  0  0
  1  2  2  0
  2  3  1  0
  3  4  1  0
  4  5  2  0
  5  6  1  0
  6  7  2  0
  7  8  1  0
  8  9  1  0
  9 10  1  0
 10 11  1  0
  8 12  2  0
  6 13  1  0
  2 14  1  0
 14 15  1  0
 15 16  2  0
 15 17  1  0
 17 18  1  0
 18 19  1  0
 19 20  2  0
 20 21  1  0
 19 22  1  0
 22 23  2  0
 23 24  1  0
 24 25  1  0
 25 26  2  0
 25 27  1  0
 24 28  2  0
 28 29  1  0
 29 30  2  0
 12  4  1  0
 17 21  2  0
 30 22  1  0
M  CHG  2  25   1  27  -1
M  END
>  <IC50>  (276) 
2.3

>  <cmpdNO>  (276) 
1010

$$$$

     RDKit          2D

 28 30  0  0  0  0  0  0  0  0999 V2000
    3.5812    1.7398    0.0000 S   0  0  0  0  0  0  0  0  0  0  0  0
    2.9050    0.4009    0.0000 C   0  0  0  0  0  0  0  0  0  0  0  0
    3.7265   -0.8542    0.0000 N   0  0  0  0  0  0  0  0  0  0  0  0
    5.2241   -0.7703    0.0000 C   0  0  0  0  0  0  0  0  0  0  0  0
    6.0456   -2.0254    0.0000 N   0  0  0  0  0  0  0  0  0  0  0  0
    7.5432   -1.9415    0.0000 C   0  0  0  0  0  0  0  0  0  0  0  0
    8.2194   -0.6025    0.0000 C   0  0  0  0  0  0  0  0  0  0  0  0
    7.3979    0.6525    0.0000 C   0  0  0  0  0  0  0  0  0  0  0  0
    8.0741    1.9915    0.0000 O   0  0  0  0  0  0  0  0  0  0  0  0
    5.9003    0.5686    0.0000 N   0  0  0  0  0  0  0  0  0  0  0  0
    8.3647   -3.1966    0.0000 C   0  0  0  0  0  0  0  0  0  0  0  0
    1.4073    0.3170    0.0000 N   0  0  0  0  0  0  0  0  0  0  0  0
    0.5859    1.5721    0.0000 C   0  0  0  0  0  0  0  0  0  0  0  0
    1.2620    2.9110    0.0000 O   0  0  0  0  0  0  0  0  0  0  0  0
   -0.9118    1.4882    0.0000 C   0  0  0  0  0  0  0  0  0  0  0  0
   -1.7242    0.2272    0.0000 C   0  0  0  0  0  0  0  0  0  0  0  0
   -3.1745    0.6103    0.0000 C   0  0  0  0  0  0  0  0  0  0  0  0
   -3.2584    2.1079    0.0000 C   0  0  0  0  0  0  0  0  0  0  0  0
   -1.8600    2.6505    0.0000 C   0  0  0  0  0  0  0  0  0  0  0  0
   -4.3368   -0.3379    0.0000 C   0  0  0  0  0  0  0  0  0  0  0  0
   -5.7391    0.1946    0.0000 C   0  0  0  0  0  0  0  0  0  0  0  0
   -6.9014   -0.7535    0.0000 C   0  0  0  0  0  0  0  0  0  0  0  0
   -8.3037   -0.2210    0.0000 N   0  0  0  0  0  0  0  0  0  0  0  0
   -9.4661   -1.1692    0.0000 O   0  0  0  0  0  0  0  0  0  0  0  0
   -8.5437    1.2597    0.0000 O   0  0  0  0  0  0  0  0  0  0  0  0
   -6.6615   -2.2342    0.0000 C   0  0  0  0  0  0  0  0  0  0  0  0
   -5.2592   -2.7667    0.0000 C   0  0  0  0  0  0  0  0  0  0  0  0
   -4.0969   -1.8186    0.0000 C   0  0  0  0  0  0  0  0  0  0  0  0
  1  2  2  0
  2  3  1  0
  3  4  1  0
  4  5  2  0
  5  6  1  0
  6  7  2  0
  7  8  1  0
  8  9  1  0
  8 10  2  0
  6 11  1  0
  2 12  1  0
 12 13  1  0
 13 14  2  0
 13 15  1  0
 15 16  1  0
 16 17  1  0
 17 18  2  0
 18 19  1  0
 17 20  1  0
 20 21  2  0
 21 22  1  0
 22 23  1  0
 23 24  2  0
 23 25  1  0
 22 26  2  0
 26 27  1  0
 27 28  2  0
 10  4  1  0
 15 19  2  0
 28 20  1  0
M  CHG  2  23   1  25  -1
M  END
>  <IC50>  (277) 
0.36

>  <cmpdNO>  (277) 
1011

$$$$

     RDKit          2D

 25 26  0  0  0  0  0  0  0  0999 V2000
    7.7173   -2.6255    0.0000 Cl  0  0  0  0  0  0  0  0  0  0  0  0
    7.1988   -1.2180    0.0000 C   0  0  0  0  0  0  0  0  0  0  0  0
    5.7206   -0.9632    0.0000 C   0  0  0  0  0  0  0  0  0  0  0  0
    5.2022    0.4444    0.0000 C   0  0  0  0  0  0  0  0  0  0  0  0
    6.1620    1.5971    0.0000 C   0  0  0  0  0  0  0  0  0  0  0  0
    7.6402    1.3424    0.0000 C   0  0  0  0  0  0  0  0  0  0  0  0
    8.1586   -0.0652    0.0000 C   0  0  0  0  0  0  0  0  0  0  0  0
    3.7240    0.6992    0.0000 C   0  0  0  0  0  0  0  0  0  0  0  0
    2.6490   -0.3469    0.0000 O   0  0  0  0  0  0  0  0  0  0  0  0
    1.3219    0.3522    0.0000 C   0  0  0  0  0  0  0  0  0  0  0  0
    1.5767    1.8304    0.0000 C   0  0  0  0  0  0  0  0  0  0  0  0
    3.0613    2.0448    0.0000 C   0  0  0  0  0  0  0  0  0  0  0  0
   -0.0238   -0.3106    0.0000 C   0  0  0  0  0  0  0  0  0  0  0  0
   -0.1227   -1.8073    0.0000 O   0  0  0  0  0  0  0  0  0  0  0  0
   -1.2705    0.5234    0.0000 N   0  0  0  0  0  0  0  0  0  0  0  0
   -2.6162   -0.1393    0.0000 C   0  0  0  0  0  0  0  0  0  0  0  0
   -2.7151   -1.6360    0.0000 S   0  0  0  0  0  0  0  0  0  0  0  0
   -3.8630    0.6947    0.0000 N   0  0  0  0  0  0  0  0  0  0  0  0
   -5.2086    0.0320    0.0000 C   0  0  0  0  0  0  0  0  0  0  0  0
   -5.3075   -1.4648    0.0000 O   0  0  0  0  0  0  0  0  0  0  0  0
   -6.4554    0.8660    0.0000 N   0  0  0  0  0  0  0  0  0  0  0  0
   -7.8010    0.2032    0.0000 C   0  0  0  0  0  0  0  0  0  0  0  0
   -8.4638    1.5489    0.0000 C   0  0  0  0  0  0  0  0  0  0  0  0
   -7.1383   -1.1424    0.0000 C   0  0  0  0  0  0  0  0  0  0  0  0
   -9.1467   -0.4595    0.0000 C   0  0  0  0  0  0  0  0  0  0  0  0
  1  2  1  0
  2  3  2  0
  3  4  1  0
  4  5  2  0
  5  6  1  0
  6  7  2  0
  4  8  1  0
  8  9  1  0
  9 10  1  0
 10 11  2  0
 11 12  1  0
 10 13  1  0
 13 14  2  0
 13 15  1  0
 15 16  1  0
 16 17  2  0
 16 18  1  0
 18 19  1  0
 19 20  2  0
 19 21  1  0
 21 22  1  0
 22 23  1  0
 22 24  1  0
 22 25  1  0
  7  2  1  0
 12  8  2  0
M  END
>  <IC50>  (278) 
1.42

>  <cmpdNO>  (278) 
1012

$$$$

     RDKit          2D

 27 28  0  0  0  0  0  0  0  0999 V2000
   -3.2201   -1.5782    0.0000 S   0  0  0  0  0  0  0  0  0  0  0  0
   -3.2079   -0.0783    0.0000 C   0  0  0  0  0  0  0  0  0  0  0  0
   -1.9028    0.6611    0.0000 N   0  0  0  0  0  0  0  0  0  0  0  0
   -0.6099   -0.0994    0.0000 C   0  0  0  0  0  0  0  0  0  0  0  0
   -0.6221   -1.5993    0.0000 O   0  0  0  0  0  0  0  0  0  0  0  0
    0.6952    0.6400    0.0000 C   0  0  0  0  0  0  0  0  0  0  0  0
    2.0605    0.0188    0.0000 O   0  0  0  0  0  0  0  0  0  0  0  0
    3.0732    1.1254    0.0000 C   0  0  0  0  0  0  0  0  0  0  0  0
    2.3338    2.4304    0.0000 C   0  0  0  0  0  0  0  0  0  0  0  0
    0.8641    2.1305    0.0000 C   0  0  0  0  0  0  0  0  0  0  0  0
    4.5637    0.9565    0.0000 C   0  0  0  0  0  0  0  0  0  0  0  0
    5.1626   -0.4188    0.0000 C   0  0  0  0  0  0  0  0  0  0  0  0
    6.6531   -0.5877    0.0000 C   0  0  0  0  0  0  0  0  0  0  0  0
    7.2521   -1.9629    0.0000 N   0  0  0  0  0  0  0  0  0  0  0  0
    8.7425   -2.1318    0.0000 O   0  0  0  0  0  0  0  0  0  0  0  0
    6.3606   -3.1692    0.0000 O   0  0  0  0  0  0  0  0  0  0  0  0
    7.5446    0.6186    0.0000 C   0  0  0  0  0  0  0  0  0  0  0  0
    6.9456    1.9939    0.0000 C   0  0  0  0  0  0  0  0  0  0  0  0
    5.4552    2.1628    0.0000 C   0  0  0  0  0  0  0  0  0  0  0  0
   -4.5008    0.6822    0.0000 N   0  0  0  0  0  0  0  0  0  0  0  0
   -5.8059   -0.0572    0.0000 C   0  0  0  0  0  0  0  0  0  0  0  0
   -5.8181   -1.5571    0.0000 O   0  0  0  0  0  0  0  0  0  0  0  0
   -7.0988    0.7033    0.0000 N   0  0  0  0  0  0  0  0  0  0  0  0
   -8.4039   -0.0361    0.0000 C   0  0  0  0  0  0  0  0  0  0  0  0
   -9.1433    1.2690    0.0000 C   0  0  0  0  0  0  0  0  0  0  0  0
   -7.6644   -1.3412    0.0000 C   0  0  0  0  0  0  0  0  0  0  0  0
   -9.7090   -0.7755    0.0000 C   0  0  0  0  0  0  0  0  0  0  0  0
  1  2  2  0
  2  3  1  0
  3  4  1  0
  4  5  2  0
  4  6  1  0
  6  7  1  0
  7  8  1  0
  8  9  2  0
  9 10  1  0
  8 11  1  0
 11 12  2  0
 12 13  1  0
 13 14  1  0
 14 15  2  0
 14 16  1  0
 13 17  2  0
 17 18  1  0
 18 19  2  0
  2 20  1  0
 20 21  1  0
 21 22  2  0
 21 23  1  0
 23 24  1  0
 24 25  1  0
 24 26  1  0
 24 27  1  0
 10  6  2  0
 19 11  1  0
M  CHG  2  14   1  16  -1
M  END
>  <IC50>  (279) 
1.3

>  <cmpdNO>  (279) 
1013

$$$$

     RDKit          2D

 19 19  0  0  0  0  0  0  0  0999 V2000
   -0.5298   -1.7582    0.0000 S   0  0  0  0  0  0  0  0  0  0  0  0
   -0.3157   -0.2735    0.0000 C   0  0  0  0  0  0  0  0  0  0  0  0
    1.0770    0.2834    0.0000 N   0  0  0  0  0  0  0  0  0  0  0  0
    2.2557   -0.6443    0.0000 C   0  0  0  0  0  0  0  0  0  0  0  0
    2.0417   -2.1289    0.0000 O   0  0  0  0  0  0  0  0  0  0  0  0
    3.6485   -0.0873    0.0000 C   0  0  0  0  0  0  0  0  0  0  0  0
    3.8626    1.3973    0.0000 C   0  0  0  0  0  0  0  0  0  0  0  0
    5.2553    1.9543    0.0000 C   0  0  0  0  0  0  0  0  0  0  0  0
    6.4340    1.0266    0.0000 C   0  0  0  0  0  0  0  0  0  0  0  0
    6.2200   -0.4581    0.0000 C   0  0  0  0  0  0  0  0  0  0  0  0
    4.8272   -1.0150    0.0000 C   0  0  0  0  0  0  0  0  0  0  0  0
   -1.4945    0.6542    0.0000 N   0  0  0  0  0  0  0  0  0  0  0  0
   -2.8872    0.0972    0.0000 C   0  0  0  0  0  0  0  0  0  0  0  0
   -3.1013   -1.3874    0.0000 O   0  0  0  0  0  0  0  0  0  0  0  0
   -4.0660    1.0249    0.0000 N   0  0  0  0  0  0  0  0  0  0  0  0
   -5.4587    0.4680    0.0000 C   0  0  0  0  0  0  0  0  0  0  0  0
   -6.0157    1.8607    0.0000 C   0  0  0  0  0  0  0  0  0  0  0  0
   -4.9018   -0.9248    0.0000 C   0  0  0  0  0  0  0  0  0  0  0  0
   -6.8515   -0.0890    0.0000 C   0  0  0  0  0  0  0  0  0  0  0  0
  1  2  2  0
  2  3  1  0
  3  4  1  0
  4  5  2  0
  4  6  1  0
  6  7  2  0
  7  8  1  0
  8  9  2  0
  9 10  1  0
 10 11  2  0
  2 12  1  0
 12 13  1  0
 13 14  2  0
 13 15  1  0
 15 16  1  0
 16 17  1  0
 16 18  1  0
 16 19  1  0
 11  6  1  0
M  END
>  <IC50>  (280) 
1.79

>  <cmpdNO>  (280) 
1014

$$$$

     RDKit          2D

 15 14  0  0  0  0  0  0  0  0999 V2000
    2.1250    2.5247    0.0000 S   0  0  0  0  0  0  0  0  0  0  0  0
    1.1591    1.3771    0.0000 C   0  0  0  0  0  0  0  0  0  0  0  0
   -0.3177    1.6398    0.0000 N   0  0  0  0  0  0  0  0  0  0  0  0
   -1.2836    0.4922    0.0000 C   0  0  0  0  0  0  0  0  0  0  0  0
   -0.7727   -0.9181    0.0000 O   0  0  0  0  0  0  0  0  0  0  0  0
   -2.7604    0.7549    0.0000 N   0  0  0  0  0  0  0  0  0  0  0  0
   -3.7264   -0.3927    0.0000 C   0  0  0  0  0  0  0  0  0  0  0  0
   -4.8740    0.5733    0.0000 C   0  0  0  0  0  0  0  0  0  0  0  0
   -2.5788   -1.3586    0.0000 C   0  0  0  0  0  0  0  0  0  0  0  0
   -4.6923   -1.5403    0.0000 C   0  0  0  0  0  0  0  0  0  0  0  0
    1.6700   -0.0332    0.0000 N   0  0  0  0  0  0  0  0  0  0  0  0
    3.1468   -0.2959    0.0000 C   0  0  0  0  0  0  0  0  0  0  0  0
    3.6577   -1.7062    0.0000 O   0  0  0  0  0  0  0  0  0  0  0  0
    5.1345   -1.9689    0.0000 C   0  0  0  0  0  0  0  0  0  0  0  0
    4.1127    0.8517    0.0000 O   0  0  0  0  0  0  0  0  0  0  0  0
  1  2  2  0
  2  3  1  0
  3  4  1  0
  4  5  2  0
  4  6  1  0
  6  7  1  0
  7  8  1  0
  7  9  1  0
  7 10  1  0
  2 11  1  0
 11 12  1  0
 12 13  1  0
 13 14  1  0
 12 15  2  0
M  END
>  <IC50>  (281) 
1.83

>  <cmpdNO>  (281) 
1015

$$$$

     RDKit          2D

 23 23  0  0  0  0  0  0  0  0999 V2000
    8.1585   -1.6159    0.0000 Cl  0  0  0  0  0  0  0  0  0  0  0  0
    6.9737   -0.6959    0.0000 C   0  0  0  0  0  0  0  0  0  0  0  0
    5.5846   -1.2619    0.0000 C   0  0  0  0  0  0  0  0  0  0  0  0
    4.3999   -0.3419    0.0000 C   0  0  0  0  0  0  0  0  0  0  0  0
    4.6043    1.1442    0.0000 C   0  0  0  0  0  0  0  0  0  0  0  0
    5.9934    1.7101    0.0000 C   0  0  0  0  0  0  0  0  0  0  0  0
    6.1978    3.1962    0.0000 Cl  0  0  0  0  0  0  0  0  0  0  0  0
    7.1781    0.7901    0.0000 C   0  0  0  0  0  0  0  0  0  0  0  0
    3.0108   -0.9079    0.0000 C   0  0  0  0  0  0  0  0  0  0  0  0
    1.8260    0.0122    0.0000 O   0  0  0  0  0  0  0  0  0  0  0  0
    0.4369   -0.5538    0.0000 C   0  0  0  0  0  0  0  0  0  0  0  0
    0.2325   -2.0398    0.0000 O   0  0  0  0  0  0  0  0  0  0  0  0
   -0.7478    0.3662    0.0000 N   0  0  0  0  0  0  0  0  0  0  0  0
   -2.1369   -0.1998    0.0000 C   0  0  0  0  0  0  0  0  0  0  0  0
   -2.3413   -1.6858    0.0000 S   0  0  0  0  0  0  0  0  0  0  0  0
   -3.3216    0.7202    0.0000 N   0  0  0  0  0  0  0  0  0  0  0  0
   -4.7108    0.1542    0.0000 C   0  0  0  0  0  0  0  0  0  0  0  0
   -4.9152   -1.3318    0.0000 O   0  0  0  0  0  0  0  0  0  0  0  0
   -5.8955    1.0742    0.0000 N   0  0  0  0  0  0  0  0  0  0  0  0
   -7.2846    0.5082    0.0000 C   0  0  0  0  0  0  0  0  0  0  0  0
   -7.8506    1.8973    0.0000 C   0  0  0  0  0  0  0  0  0  0  0  0
   -6.7186   -0.8809    0.0000 C   0  0  0  0  0  0  0  0  0  0  0  0
   -8.6737   -0.0578    0.0000 C   0  0  0  0  0  0  0  0  0  0  0  0
  1  2  1  0
  2  3  2  0
  3  4  1  0
  4  5  2  0
  5  6  1  0
  6  7  1  0
  6  8  2  0
  4  9  1  0
  9 10  1  0
 10 11  1  0
 11 12  2  0
 11 13  1  0
 13 14  1  0
 14 15  2  0
 14 16  1  0
 16 17  1  0
 17 18  2  0
 17 19  1  0
 19 20  1  0
 20 21  1  0
 20 22  1  0
 20 23  1  0
  8  2  1  0
M  END
>  <IC50>  (282) 
1.67

>  <cmpdNO>  (282) 
1016

$$$$

     RDKit          2D

 21 21  0  0  0  0  0  0  0  0999 V2000
   -0.8498   -1.7634    0.0000 S   0  0  0  0  0  0  0  0  0  0  0  0
   -0.6590   -0.2756    0.0000 C   0  0  0  0  0  0  0  0  0  0  0  0
    0.7249    0.3031    0.0000 N   0  0  0  0  0  0  0  0  0  0  0  0
    1.9180   -0.6060    0.0000 C   0  0  0  0  0  0  0  0  0  0  0  0
    1.7272   -2.0938    0.0000 O   0  0  0  0  0  0  0  0  0  0  0  0
    3.3019   -0.0273    0.0000 C   0  0  0  0  0  0  0  0  0  0  0  0
    3.4926    1.4605    0.0000 C   0  0  0  0  0  0  0  0  0  0  0  0
    2.2995    2.3696    0.0000 F   0  0  0  0  0  0  0  0  0  0  0  0
    4.8765    2.0392    0.0000 C   0  0  0  0  0  0  0  0  0  0  0  0
    6.0696    1.1301    0.0000 C   0  0  0  0  0  0  0  0  0  0  0  0
    5.8788   -0.3577    0.0000 C   0  0  0  0  0  0  0  0  0  0  0  0
    4.4950   -0.9364    0.0000 C   0  0  0  0  0  0  0  0  0  0  0  0
    4.3042   -2.4242    0.0000 F   0  0  0  0  0  0  0  0  0  0  0  0
   -1.8521    0.6335    0.0000 N   0  0  0  0  0  0  0  0  0  0  0  0
   -3.2360    0.0548    0.0000 C   0  0  0  0  0  0  0  0  0  0  0  0
   -3.4267   -1.4330    0.0000 O   0  0  0  0  0  0  0  0  0  0  0  0
   -4.4291    0.9640    0.0000 N   0  0  0  0  0  0  0  0  0  0  0  0
   -5.8129    0.3853    0.0000 C   0  0  0  0  0  0  0  0  0  0  0  0
   -6.3916    1.7691    0.0000 C   0  0  0  0  0  0  0  0  0  0  0  0
   -5.2342   -0.9986    0.0000 C   0  0  0  0  0  0  0  0  0  0  0  0
   -7.1968   -0.1934    0.0000 C   0  0  0  0  0  0  0  0  0  0  0  0
  1  2  2  0
  2  3  1  0
  3  4  1  0
  4  5  2  0
  4  6  1  0
  6  7  2  0
  7  8  1  0
  7  9  1  0
  9 10  2  0
 10 11  1  0
 11 12  2  0
 12 13  1  0
  2 14  1  0
 14 15  1  0
 15 16  2  0
 15 17  1  0
 17 18  1  0
 18 19  1  0
 18 20  1  0
 18 21  1  0
 12  6  1  0
M  END
>  <IC50>  (283) 
1.43

>  <cmpdNO>  (283) 
1017

$$$$

     RDKit          2D

 25 25  0  0  0  0  0  0  0  0999 V2000
    5.7686    1.5297    0.0000 Cl  0  0  0  0  0  0  0  0  0  0  0  0
    5.6723    0.0328    0.0000 C   0  0  0  0  0  0  0  0  0  0  0  0
    4.3278   -0.6322    0.0000 C   0  0  0  0  0  0  0  0  0  0  0  0
    3.0796    0.1997    0.0000 C   0  0  0  0  0  0  0  0  0  0  0  0
    2.4146    1.5442    0.0000 C   0  0  0  0  0  0  0  0  0  0  0  0
    1.3298    2.5801    0.0000 C   0  0  0  0  0  0  0  0  0  0  0  0
    3.6232    2.4326    0.0000 C   0  0  0  0  0  0  0  0  0  0  0  0
    1.5827    0.2960    0.0000 C   0  0  0  0  0  0  0  0  0  0  0  0
    0.2382   -0.3691    0.0000 C   0  0  0  0  0  0  0  0  0  0  0  0
    0.1419   -1.8660    0.0000 O   0  0  0  0  0  0  0  0  0  0  0  0
   -1.0100    0.4628    0.0000 N   0  0  0  0  0  0  0  0  0  0  0  0
   -2.3545   -0.2023    0.0000 C   0  0  0  0  0  0  0  0  0  0  0  0
   -2.4508   -1.6992    0.0000 S   0  0  0  0  0  0  0  0  0  0  0  0
   -3.6027    0.6296    0.0000 N   0  0  0  0  0  0  0  0  0  0  0  0
   -4.9473   -0.0354    0.0000 C   0  0  0  0  0  0  0  0  0  0  0  0
   -5.0436   -1.5323    0.0000 O   0  0  0  0  0  0  0  0  0  0  0  0
   -6.1955    0.7964    0.0000 N   0  0  0  0  0  0  0  0  0  0  0  0
   -7.5400    0.1314    0.0000 C   0  0  0  0  0  0  0  0  0  0  0  0
   -8.2050    1.4759    0.0000 C   0  0  0  0  0  0  0  0  0  0  0  0
   -6.8749   -1.2131    0.0000 C   0  0  0  0  0  0  0  0  0  0  0  0
   -8.8845   -0.5337    0.0000 C   0  0  0  0  0  0  0  0  0  0  0  0
    6.9205   -0.7990    0.0000 C   0  0  0  0  0  0  0  0  0  0  0  0
    8.1687   -1.6309    0.0000 F   0  0  0  0  0  0  0  0  0  0  0  0
    7.7524    0.4492    0.0000 F   0  0  0  0  0  0  0  0  0  0  0  0
    6.0887   -2.0472    0.0000 F   0  0  0  0  0  0  0  0  0  0  0  0
  1  2  1  0
  2  3  2  0
  3  4  1  0
  4  5  1  0
  5  6  1  0
  5  7  1  0
  5  8  1  0
  8  9  1  0
  9 10  2  0
  9 11  1  0
 11 12  1  0
 12 13  2  0
 12 14  1  0
 14 15  1  0
 15 16  2  0
 15 17  1  0
 17 18  1  0
 18 19  1  0
 18 20  1  0
 18 21  1  0
  2 22  1  0
 22 23  1  0
 22 24  1  0
 22 25  1  0
  8  4  1  0
M  END
>  <IC50>  (284) 
0.51

>  <cmpdNO>  (284) 
1018

$$$$

     RDKit          2D

 22 22  0  0  0  0  0  0  0  0999 V2000
    6.8806   -2.3414    0.0000 Cl  0  0  0  0  0  0  0  0  0  0  0  0
    5.5887   -1.5792    0.0000 C   0  0  0  0  0  0  0  0  0  0  0  0
    4.2827   -2.3168    0.0000 Cl  0  0  0  0  0  0  0  0  0  0  0  0
    5.6030   -0.0792    0.0000 C   0  0  0  0  0  0  0  0  0  0  0  0
    4.3111    0.6830    0.0000 C   0  0  0  0  0  0  0  0  0  0  0  0
    3.5734    1.9891    0.0000 C   0  0  0  0  0  0  0  0  0  0  0  0
    2.4335    2.9641    0.0000 C   0  0  0  0  0  0  0  0  0  0  0  0
    4.7316    2.9424    0.0000 C   0  0  0  0  0  0  0  0  0  0  0  0
    2.8111    0.6973    0.0000 C   0  0  0  0  0  0  0  0  0  0  0  0
    1.5051   -0.0404    0.0000 C   0  0  0  0  0  0  0  0  0  0  0  0
    1.4909   -1.5403    0.0000 O   0  0  0  0  0  0  0  0  0  0  0  0
    0.2132    0.7219    0.0000 N   0  0  0  0  0  0  0  0  0  0  0  0
   -1.0929   -0.0158    0.0000 C   0  0  0  0  0  0  0  0  0  0  0  0
   -1.1071   -1.5157    0.0000 S   0  0  0  0  0  0  0  0  0  0  0  0
   -2.3848    0.7465    0.0000 N   0  0  0  0  0  0  0  0  0  0  0  0
   -3.6909    0.0088    0.0000 C   0  0  0  0  0  0  0  0  0  0  0  0
   -3.7051   -1.4911    0.0000 O   0  0  0  0  0  0  0  0  0  0  0  0
   -4.9827    0.7711    0.0000 N   0  0  0  0  0  0  0  0  0  0  0  0
   -6.2888    0.0334    0.0000 C   0  0  0  0  0  0  0  0  0  0  0  0
   -7.0265    1.3395    0.0000 C   0  0  0  0  0  0  0  0  0  0  0  0
   -5.5512   -1.2727    0.0000 C   0  0  0  0  0  0  0  0  0  0  0  0
   -7.5949   -0.7043    0.0000 C   0  0  0  0  0  0  0  0  0  0  0  0
  1  2  1  0
  2  3  1  0
  2  4  2  0
  4  5  1  0
  5  6  1  0
  6  7  1  0
  6  8  1  0
  6  9  1  0
  9 10  1  0
 10 11  2  0
 10 12  1  0
 12 13  1  0
 13 14  2  0
 13 15  1  0
 15 16  1  0
 16 17  2  0
 16 18  1  0
 18 19  1  0
 19 20  1  0
 19 21  1  0
 19 22  1  0
  9  5  1  0
M  END
>  <IC50>  (285) 
0.26

>  <cmpdNO>  (285) 
1019

$$$$

     RDKit          2D

 32 34  0  0  0  0  0  0  0  0999 V2000
    4.3413    1.1986    0.0000 S   0  0  0  0  0  0  0  0  0  0  0  0
    3.7571   -0.1829    0.0000 C   0  0  0  0  0  0  0  0  0  0  0  0
    4.6614   -1.3797    0.0000 N   0  0  0  0  0  0  0  0  0  0  0  0
    6.1500   -1.1949    0.0000 C   0  0  0  0  0  0  0  0  0  0  0  0
    7.0543   -2.3916    0.0000 N   0  0  0  0  0  0  0  0  0  0  0  0
    8.5429   -2.2068    0.0000 C   0  0  0  0  0  0  0  0  0  0  0  0
    9.1271   -0.8253    0.0000 C   0  0  0  0  0  0  0  0  0  0  0  0
    8.2228    0.3715    0.0000 C   0  0  0  0  0  0  0  0  0  0  0  0
    8.8071    1.7530    0.0000 O   0  0  0  0  0  0  0  0  0  0  0  0
   10.2956    1.9378    0.0000 C   0  0  0  0  0  0  0  0  0  0  0  0
    6.7342    0.1867    0.0000 N   0  0  0  0  0  0  0  0  0  0  0  0
    9.4472   -3.4036    0.0000 C   0  0  0  0  0  0  0  0  0  0  0  0
    2.2685   -0.3677    0.0000 N   0  0  0  0  0  0  0  0  0  0  0  0
    1.3642    0.8290    0.0000 C   0  0  0  0  0  0  0  0  0  0  0  0
    1.9484    2.2105    0.0000 O   0  0  0  0  0  0  0  0  0  0  0  0
   -0.1244    0.6442    0.0000 N   0  0  0  0  0  0  0  0  0  0  0  0
   -1.0287    1.8409    0.0000 C   0  0  0  0  0  0  0  0  0  0  0  0
   -0.4445    3.2225    0.0000 O   0  0  0  0  0  0  0  0  0  0  0  0
   -2.5173    1.6561    0.0000 C   0  0  0  0  0  0  0  0  0  0  0  0
   -3.2427    0.3432    0.0000 O   0  0  0  0  0  0  0  0  0  0  0  0
   -4.7156    0.6275    0.0000 C   0  0  0  0  0  0  0  0  0  0  0  0
   -4.9004    2.1160    0.0000 C   0  0  0  0  0  0  0  0  0  0  0  0
   -3.5417    2.7518    0.0000 C   0  0  0  0  0  0  0  0  0  0  0  0
   -5.8112   -0.3970    0.0000 C   0  0  0  0  0  0  0  0  0  0  0  0
   -7.2463    0.0396    0.0000 C   0  0  0  0  0  0  0  0  0  0  0  0
   -8.3419   -0.9848    0.0000 C   0  0  0  0  0  0  0  0  0  0  0  0
   -9.7770   -0.5482    0.0000 N   0  0  0  0  0  0  0  0  0  0  0  0
  -10.8726   -1.5727    0.0000 O   0  0  0  0  0  0  0  0  0  0  0  0
  -10.1163    0.9129    0.0000 O   0  0  0  0  0  0  0  0  0  0  0  0
   -8.0025   -2.4459    0.0000 C   0  0  0  0  0  0  0  0  0  0  0  0
   -6.5675   -2.8826    0.0000 C   0  0  0  0  0  0  0  0  0  0  0  0
   -5.4718   -1.8581    0.0000 C   0  0  0  0  0  0  0  0  0  0  0  0
  1  2  2  0
  2  3  1  0
  3  4  1  0
  4  5  2  0
  5  6  1  0
  6  7  2  0
  7  8  1  0
  8  9  1  0
  9 10  1  0
  8 11  2  0
  6 12  1  0
  2 13  1  0
 13 14  1  0
 14 15  2  0
 14 16  1  0
 16 17  1  0
 17 18  2  0
 17 19  1  0
 19 20  1  0
 20 21  1  0
 21 22  2  0
 22 23  1  0
 21 24  1  0
 24 25  2  0
 25 26  1  0
 26 27  1  0
 27 28  2  0
 27 29  1  0
 26 30  2  0
 30 31  1  0
 31 32  2  0
 11  4  1  0
 23 19  2  0
 32 24  1  0
M  CHG  2  27   1  29  -1
M  END
>  <IC50>  (286) 
1.22

>  <cmpdNO>  (286) 
1020

$$$$

     RDKit          2D

 30 32  0  0  0  0  0  0  0  0999 V2000
    9.5242   -2.6239    0.0000 Cl  0  0  0  0  0  0  0  0  0  0  0  0
    9.0176   -1.2120    0.0000 C   0  0  0  0  0  0  0  0  0  0  0  0
    7.5415   -0.9448    0.0000 C   0  0  0  0  0  0  0  0  0  0  0  0
    7.0349    0.4670    0.0000 C   0  0  0  0  0  0  0  0  0  0  0  0
    8.0043    1.6117    0.0000 C   0  0  0  0  0  0  0  0  0  0  0  0
    9.4803    1.3445    0.0000 C   0  0  0  0  0  0  0  0  0  0  0  0
    9.9869   -0.0673    0.0000 C   0  0  0  0  0  0  0  0  0  0  0  0
    5.5589    0.7342    0.0000 C   0  0  0  0  0  0  0  0  0  0  0  0
    4.4752   -0.3029    0.0000 O   0  0  0  0  0  0  0  0  0  0  0  0
    3.1540    0.4073    0.0000 C   0  0  0  0  0  0  0  0  0  0  0  0
    3.4211    1.8833    0.0000 C   0  0  0  0  0  0  0  0  0  0  0  0
    4.9075    2.0853    0.0000 C   0  0  0  0  0  0  0  0  0  0  0  0
    1.8028   -0.2441    0.0000 C   0  0  0  0  0  0  0  0  0  0  0  0
    1.6914   -1.7400    0.0000 O   0  0  0  0  0  0  0  0  0  0  0  0
    0.5631    0.6003    0.0000 N   0  0  0  0  0  0  0  0  0  0  0  0
   -0.7881   -0.0512    0.0000 C   0  0  0  0  0  0  0  0  0  0  0  0
   -0.8995   -1.5470    0.0000 O   0  0  0  0  0  0  0  0  0  0  0  0
   -2.0278    0.7933    0.0000 N   0  0  0  0  0  0  0  0  0  0  0  0
   -3.3790    0.1418    0.0000 C   0  0  0  0  0  0  0  0  0  0  0  0
   -3.4904   -1.3540    0.0000 S   0  0  0  0  0  0  0  0  0  0  0  0
   -4.6187    0.9863    0.0000 N   0  0  0  0  0  0  0  0  0  0  0  0
   -5.9699    0.3348    0.0000 C   0  0  0  0  0  0  0  0  0  0  0  0
   -7.2096    1.1792    0.0000 N   0  0  0  0  0  0  0  0  0  0  0  0
   -8.5608    0.5278    0.0000 C   0  0  0  0  0  0  0  0  0  0  0  0
   -9.8005    1.3722    0.0000 O   0  0  0  0  0  0  0  0  0  0  0  0
   -9.6891    2.8681    0.0000 C   0  0  0  0  0  0  0  0  0  0  0  0
   -8.6722   -0.9681    0.0000 C   0  0  0  0  0  0  0  0  0  0  0  0
   -7.4325   -1.8125    0.0000 C   0  0  0  0  0  0  0  0  0  0  0  0
   -7.5439   -3.3083    0.0000 Cl  0  0  0  0  0  0  0  0  0  0  0  0
   -6.0813   -1.1610    0.0000 N   0  0  0  0  0  0  0  0  0  0  0  0
  1  2  1  0
  2  3  2  0
  3  4  1  0
  4  5  2  0
  5  6  1  0
  6  7  2  0
  4  8  1  0
  8  9  1  0
  9 10  1  0
 10 11  2  0
 11 12  1  0
 10 13  1  0
 13 14  2  0
 13 15  1  0
 15 16  1  0
 16 17  2  0
 16 18  1  0
 18 19  1  0
 19 20  2  0
 19 21  1  0
 21 22  1  0
 22 23  2  0
 23 24  1  0
 24 25  1  0
 25 26  1  0
 24 27  2  0
 27 28  1  0
 28 29  1  0
 28 30  2  0
  7  2  1  0
 12  8  2  0
 30 22  1  0
M  END
>  <IC50>  (287) 
1.29

>  <cmpdNO>  (287) 
1021

$$$$

     RDKit          2D

 24 25  0  0  0  0  0  0  0  0999 V2000
   -4.1000   -2.1881    0.0000 Cl  0  0  0  0  0  0  0  0  0  0  0  0
   -5.2386   -1.2115    0.0000 C   0  0  0  0  0  0  0  0  0  0  0  0
   -6.6536   -1.7092    0.0000 C   0  0  0  0  0  0  0  0  0  0  0  0
   -7.7921   -0.7326    0.0000 N   0  0  0  0  0  0  0  0  0  0  0  0
   -7.5157    0.7417    0.0000 C   0  0  0  0  0  0  0  0  0  0  0  0
   -6.1006    1.2394    0.0000 C   0  0  0  0  0  0  0  0  0  0  0  0
   -4.9621    0.2628    0.0000 C   0  0  0  0  0  0  0  0  0  0  0  0
   -3.5471    0.7605    0.0000 C   0  0  0  0  0  0  0  0  0  0  0  0
   -3.2706    2.2348    0.0000 O   0  0  0  0  0  0  0  0  0  0  0  0
   -2.4085   -0.2160    0.0000 N   0  0  0  0  0  0  0  0  0  0  0  0
   -0.9935    0.2817    0.0000 C   0  0  0  0  0  0  0  0  0  0  0  0
   -0.7170    1.7560    0.0000 O   0  0  0  0  0  0  0  0  0  0  0  0
    0.1450   -0.6949    0.0000 N   0  0  0  0  0  0  0  0  0  0  0  0
    1.5601   -0.1972    0.0000 C   0  0  0  0  0  0  0  0  0  0  0  0
    1.8365    1.2771    0.0000 S   0  0  0  0  0  0  0  0  0  0  0  0
    2.6986   -1.1737    0.0000 N   0  0  0  0  0  0  0  0  0  0  0  0
    4.1136   -0.6760    0.0000 C   0  0  0  0  0  0  0  0  0  0  0  0
    5.2522   -1.6526    0.0000 N   0  0  0  0  0  0  0  0  0  0  0  0
    6.6672   -1.1549    0.0000 C   0  0  0  0  0  0  0  0  0  0  0  0
    6.9437    0.3194    0.0000 C   0  0  0  0  0  0  0  0  0  0  0  0
    5.8051    1.2960    0.0000 C   0  0  0  0  0  0  0  0  0  0  0  0
    4.3901    0.7983    0.0000 N   0  0  0  0  0  0  0  0  0  0  0  0
    6.0816    2.7703    0.0000 C   0  0  0  0  0  0  0  0  0  0  0  0
    7.8057   -2.1314    0.0000 C   0  0  0  0  0  0  0  0  0  0  0  0
  1  2  1  0
  2  3  2  0
  3  4  1  0
  4  5  2  0
  5  6  1  0
  6  7  2  0
  7  8  1  0
  8  9  2  0
  8 10  1  0
 10 11  1  0
 11 12  2  0
 11 13  1  0
 13 14  1  0
 14 15  2  0
 14 16  1  0
 16 17  1  0
 17 18  2  0
 18 19  1  0
 19 20  2  0
 20 21  1  0
 21 22  2  0
 21 23  1  0
 19 24  1  0
  7  2  1  0
 22 17  1  0
M  END
>  <IC50>  (288) 
7.19

>  <cmpdNO>  (288) 
1022

$$$$

     RDKit          2D

 25 26  0  0  0  0  0  0  0  0999 V2000
   -4.3082   -2.2332    0.0000 Cl  0  0  0  0  0  0  0  0  0  0  0  0
   -5.4881   -1.3070    0.0000 C   0  0  0  0  0  0  0  0  0  0  0  0
   -6.8801   -1.8658    0.0000 C   0  0  0  0  0  0  0  0  0  0  0  0
   -8.0601   -0.9396    0.0000 N   0  0  0  0  0  0  0  0  0  0  0  0
   -7.8479    0.5453    0.0000 C   0  0  0  0  0  0  0  0  0  0  0  0
   -6.4559    1.1041    0.0000 C   0  0  0  0  0  0  0  0  0  0  0  0
   -5.2760    0.1779    0.0000 C   0  0  0  0  0  0  0  0  0  0  0  0
   -3.8839    0.7366    0.0000 C   0  0  0  0  0  0  0  0  0  0  0  0
   -3.6718    2.2216    0.0000 O   0  0  0  0  0  0  0  0  0  0  0  0
   -2.7040   -0.1895    0.0000 N   0  0  0  0  0  0  0  0  0  0  0  0
   -1.3120    0.3692    0.0000 C   0  0  0  0  0  0  0  0  0  0  0  0
   -1.0998    1.8542    0.0000 O   0  0  0  0  0  0  0  0  0  0  0  0
   -0.1320   -0.5569    0.0000 N   0  0  0  0  0  0  0  0  0  0  0  0
    1.2600    0.0018    0.0000 C   0  0  0  0  0  0  0  0  0  0  0  0
    1.4721    1.4868    0.0000 S   0  0  0  0  0  0  0  0  0  0  0  0
    2.4399   -0.9243    0.0000 N   0  0  0  0  0  0  0  0  0  0  0  0
    3.8320   -0.3656    0.0000 C   0  0  0  0  0  0  0  0  0  0  0  0
    5.0119   -1.2917    0.0000 N   0  0  0  0  0  0  0  0  0  0  0  0
    6.4039   -0.7330    0.0000 C   0  0  0  0  0  0  0  0  0  0  0  0
    7.5839   -1.6591    0.0000 O   0  0  0  0  0  0  0  0  0  0  0  0
    7.3717   -3.1441    0.0000 C   0  0  0  0  0  0  0  0  0  0  0  0
    6.6161    0.7520    0.0000 C   0  0  0  0  0  0  0  0  0  0  0  0
    5.4361    1.6781    0.0000 C   0  0  0  0  0  0  0  0  0  0  0  0
    5.6483    3.1630    0.0000 Cl  0  0  0  0  0  0  0  0  0  0  0  0
    4.0441    1.1194    0.0000 N   0  0  0  0  0  0  0  0  0  0  0  0
  1  2  1  0
  2  3  2  0
  3  4  1  0
  4  5  2  0
  5  6  1  0
  6  7  2  0
  7  8  1  0
  8  9  2  0
  8 10  1  0
 10 11  1  0
 11 12  2  0
 11 13  1  0
 13 14  1  0
 14 15  2  0
 14 16  1  0
 16 17  1  0
 17 18  2  0
 18 19  1  0
 19 20  1  0
 20 21  1  0
 19 22  2  0
 22 23  1  0
 23 24  1  0
 23 25  2  0
  7  2  1  0
 25 17  1  0
M  END
>  <IC50>  (289) 
2.59

>  <cmpdNO>  (289) 
1023

$$$$

     RDKit          2D

 27 28  0  0  0  0  0  0  0  0999 V2000
   -7.0418   -3.2403    0.0000 Cl  0  0  0  0  0  0  0  0  0  0  0  0
   -6.7742   -1.7644    0.0000 C   0  0  0  0  0  0  0  0  0  0  0  0
   -7.9186   -0.7947    0.0000 N   0  0  0  0  0  0  0  0  0  0  0  0
   -7.6511    0.6813    0.0000 C   0  0  0  0  0  0  0  0  0  0  0  0
   -8.7955    1.6510    0.0000 Cl  0  0  0  0  0  0  0  0  0  0  0  0
   -6.2391    1.1875    0.0000 C   0  0  0  0  0  0  0  0  0  0  0  0
   -5.0947    0.2178    0.0000 C   0  0  0  0  0  0  0  0  0  0  0  0
   -5.3622   -1.2581    0.0000 C   0  0  0  0  0  0  0  0  0  0  0  0
   -3.6827    0.7241    0.0000 C   0  0  0  0  0  0  0  0  0  0  0  0
   -3.4151    2.2000    0.0000 O   0  0  0  0  0  0  0  0  0  0  0  0
   -2.5383   -0.2456    0.0000 N   0  0  0  0  0  0  0  0  0  0  0  0
   -1.1263    0.2606    0.0000 C   0  0  0  0  0  0  0  0  0  0  0  0
   -0.8587    1.7366    0.0000 O   0  0  0  0  0  0  0  0  0  0  0  0
    0.0181   -0.7091    0.0000 N   0  0  0  0  0  0  0  0  0  0  0  0
    1.4301   -0.2028    0.0000 C   0  0  0  0  0  0  0  0  0  0  0  0
    1.6977    1.2731    0.0000 S   0  0  0  0  0  0  0  0  0  0  0  0
    2.5746   -1.1725    0.0000 N   0  0  0  0  0  0  0  0  0  0  0  0
    3.9865   -0.6662    0.0000 C   0  0  0  0  0  0  0  0  0  0  0  0
    5.1310   -1.6359    0.0000 N   0  0  0  0  0  0  0  0  0  0  0  0
    6.5430   -1.1297    0.0000 C   0  0  0  0  0  0  0  0  0  0  0  0
    7.6874   -2.0994    0.0000 O   0  0  0  0  0  0  0  0  0  0  0  0
    7.4198   -3.5753    0.0000 C   0  0  0  0  0  0  0  0  0  0  0  0
    6.8105    0.3463    0.0000 C   0  0  0  0  0  0  0  0  0  0  0  0
    5.6661    1.3160    0.0000 C   0  0  0  0  0  0  0  0  0  0  0  0
    5.9337    2.7919    0.0000 O   0  0  0  0  0  0  0  0  0  0  0  0
    7.3457    3.2982    0.0000 C   0  0  0  0  0  0  0  0  0  0  0  0
    4.2541    0.8097    0.0000 N   0  0  0  0  0  0  0  0  0  0  0  0
  1  2  1  0
  2  3  2  0
  3  4  1  0
  4  5  1  0
  4  6  2  0
  6  7  1  0
  7  8  2  0
  7  9  1  0
  9 10  2  0
  9 11  1  0
 11 12  1  0
 12 13  2  0
 12 14  1  0
 14 15  1  0
 15 16  2  0
 15 17  1  0
 17 18  1  0
 18 19  2  0
 19 20  1  0
 20 21  1  0
 21 22  1  0
 20 23  2  0
 23 24  1  0
 24 25  1  0
 25 26  1  0
 24 27  2  0
  8  2  1  0
 27 18  1  0
M  END
>  <IC50>  (290) 
18.5

>  <cmpdNO>  (290) 
1024

$$$$

     RDKit          2D

 23 24  0  0  0  0  0  0  0  0999 V2000
    1.6377    1.2104    0.0000 S   0  0  0  0  0  0  0  0  0  0  0  0
    1.3866   -0.2685    0.0000 C   0  0  0  0  0  0  0  0  0  0  0  0
    2.5418   -1.2253    0.0000 N   0  0  0  0  0  0  0  0  0  0  0  0
    3.9481   -0.7033    0.0000 C   0  0  0  0  0  0  0  0  0  0  0  0
    5.1033   -1.6601    0.0000 N   0  0  0  0  0  0  0  0  0  0  0  0
    6.5095   -1.1381    0.0000 C   0  0  0  0  0  0  0  0  0  0  0  0
    6.7605    0.3408    0.0000 C   0  0  0  0  0  0  0  0  0  0  0  0
    5.6053    1.2976    0.0000 C   0  0  0  0  0  0  0  0  0  0  0  0
    4.1991    0.7756    0.0000 N   0  0  0  0  0  0  0  0  0  0  0  0
    5.8564    2.7764    0.0000 C   0  0  0  0  0  0  0  0  0  0  0  0
    7.6647   -2.0949    0.0000 C   0  0  0  0  0  0  0  0  0  0  0  0
   -0.0196   -0.7905    0.0000 N   0  0  0  0  0  0  0  0  0  0  0  0
   -1.1748    0.1664    0.0000 C   0  0  0  0  0  0  0  0  0  0  0  0
   -0.9238    1.6452    0.0000 O   0  0  0  0  0  0  0  0  0  0  0  0
   -2.5810   -0.3557    0.0000 N   0  0  0  0  0  0  0  0  0  0  0  0
   -3.7362    0.6012    0.0000 C   0  0  0  0  0  0  0  0  0  0  0  0
   -3.4852    2.0800    0.0000 O   0  0  0  0  0  0  0  0  0  0  0  0
   -5.1425    0.0791    0.0000 C   0  0  0  0  0  0  0  0  0  0  0  0
   -6.2977    1.0360    0.0000 C   0  0  0  0  0  0  0  0  0  0  0  0
   -7.7039    0.5140    0.0000 C   0  0  0  0  0  0  0  0  0  0  0  0
   -7.9549   -0.9649    0.0000 C   0  0  0  0  0  0  0  0  0  0  0  0
   -6.7997   -1.9217    0.0000 C   0  0  0  0  0  0  0  0  0  0  0  0
   -5.3935   -1.3997    0.0000 C   0  0  0  0  0  0  0  0  0  0  0  0
  1  2  2  0
  2  3  1  0
  3  4  1  0
  4  5  2  0
  5  6  1  0
  6  7  2  0
  7  8  1  0
  8  9  2  0
  8 10  1  0
  6 11  1  0
  2 12  1  0
 12 13  1  0
 13 14  2  0
 13 15  1  0
 15 16  1  0
 16 17  2  0
 16 18  1  0
 18 19  2  0
 19 20  1  0
 20 21  2  0
 21 22  1  0
 22 23  2  0
  9  4  1  0
 23 18  1  0
M  END
>  <IC50>  (291) 
2.1

>  <cmpdNO>  (291) 
1025

$$$$

     RDKit          2D

 30 31  0  0  0  0  0  0  0  0999 V2000
    2.7192    1.2908    0.0000 S   0  0  0  0  0  0  0  0  0  0  0  0
    2.4280   -0.1806    0.0000 C   0  0  0  0  0  0  0  0  0  0  0  0
    3.5567   -1.1686    0.0000 N   0  0  0  0  0  0  0  0  0  0  0  0
    4.9766   -0.6850    0.0000 C   0  0  0  0  0  0  0  0  0  0  0  0
    6.1053   -1.6730    0.0000 N   0  0  0  0  0  0  0  0  0  0  0  0
    7.5253   -1.1895    0.0000 C   0  0  0  0  0  0  0  0  0  0  0  0
    8.6540   -2.1774    0.0000 O   0  0  0  0  0  0  0  0  0  0  0  0
    8.3628   -3.6488    0.0000 C   0  0  0  0  0  0  0  0  0  0  0  0
    7.8165    0.2820    0.0000 C   0  0  0  0  0  0  0  0  0  0  0  0
    6.6878    1.2699    0.0000 C   0  0  0  0  0  0  0  0  0  0  0  0
    6.9790    2.7414    0.0000 O   0  0  0  0  0  0  0  0  0  0  0  0
    8.3989    3.2249    0.0000 C   0  0  0  0  0  0  0  0  0  0  0  0
    5.2678    0.7864    0.0000 N   0  0  0  0  0  0  0  0  0  0  0  0
    1.0081   -0.6642    0.0000 N   0  0  0  0  0  0  0  0  0  0  0  0
   -0.1207    0.3238    0.0000 C   0  0  0  0  0  0  0  0  0  0  0  0
    0.1706    1.7952    0.0000 O   0  0  0  0  0  0  0  0  0  0  0  0
   -1.5406   -0.1598    0.0000 N   0  0  0  0  0  0  0  0  0  0  0  0
   -2.6693    0.8282    0.0000 C   0  0  0  0  0  0  0  0  0  0  0  0
   -2.3781    2.2996    0.0000 O   0  0  0  0  0  0  0  0  0  0  0  0
   -4.0892    0.3447    0.0000 C   0  0  0  0  0  0  0  0  0  0  0  0
   -5.0772   -0.7841    0.0000 C   0  0  0  0  0  0  0  0  0  0  0  0
   -4.1372   -1.9530    0.0000 C   0  0  0  0  0  0  0  0  0  0  0  0
   -6.3916   -1.5068    0.0000 C   0  0  0  0  0  0  0  0  0  0  0  0
   -5.5607    0.6359    0.0000 C   0  0  0  0  0  0  0  0  0  0  0  0
   -6.6894    1.6238    0.0000 C   0  0  0  0  0  0  0  0  0  0  0  0
   -8.1093    1.1403    0.0000 C   0  0  0  0  0  0  0  0  0  0  0  0
   -8.4005   -0.3312    0.0000 C   0  0  0  0  0  0  0  0  0  0  0  0
   -8.6918   -1.8026    0.0000 F   0  0  0  0  0  0  0  0  0  0  0  0
   -9.8720   -0.0400    0.0000 F   0  0  0  0  0  0  0  0  0  0  0  0
   -6.9291   -0.6224    0.0000 F   0  0  0  0  0  0  0  0  0  0  0  0
  1  2  2  0
  2  3  1  0
  3  4  1  0
  4  5  2  0
  5  6  1  0
  6  7  1  0
  7  8  1  0
  6  9  2  0
  9 10  1  0
 10 11  1  0
 11 12  1  0
 10 13  2  0
  2 14  1  0
 14 15  1  0
 15 16  2  0
 15 17  1  0
 17 18  1  0
 18 19  2  0
 18 20  1  0
 20 21  1  0
 21 22  1  0
 21 23  1  0
 21 24  1  0
 24 25  1  0
 25 26  2  0
 26 27  1  0
 27 28  1  0
 27 29  1  0
 27 30  1  0
 13  4  1  0
 24 20  1  0
M  END
>  <IC50>  (292) 
0.97

>  <cmpdNO>  (292) 
1026

$$$$

     RDKit          2D

 28 29  0  0  0  0  0  0  0  0999 V2000
    3.3231    1.2620    0.0000 S   0  0  0  0  0  0  0  0  0  0  0  0
    3.0258   -0.2082    0.0000 C   0  0  0  0  0  0  0  0  0  0  0  0
    4.1504   -1.2008    0.0000 N   0  0  0  0  0  0  0  0  0  0  0  0
    5.5723   -0.7231    0.0000 C   0  0  0  0  0  0  0  0  0  0  0  0
    6.6970   -1.7157    0.0000 N   0  0  0  0  0  0  0  0  0  0  0  0
    8.1189   -1.2380    0.0000 C   0  0  0  0  0  0  0  0  0  0  0  0
    8.4161    0.2322    0.0000 C   0  0  0  0  0  0  0  0  0  0  0  0
    7.2915    1.2248    0.0000 C   0  0  0  0  0  0  0  0  0  0  0  0
    5.8696    0.7471    0.0000 N   0  0  0  0  0  0  0  0  0  0  0  0
    7.5888    2.6950    0.0000 C   0  0  0  0  0  0  0  0  0  0  0  0
    9.2435   -2.2306    0.0000 C   0  0  0  0  0  0  0  0  0  0  0  0
    1.6039   -0.6859    0.0000 N   0  0  0  0  0  0  0  0  0  0  0  0
    0.4792    0.3067    0.0000 C   0  0  0  0  0  0  0  0  0  0  0  0
    0.7765    1.7769    0.0000 O   0  0  0  0  0  0  0  0  0  0  0  0
   -0.9427   -0.1710    0.0000 N   0  0  0  0  0  0  0  0  0  0  0  0
   -2.0673    0.8216    0.0000 C   0  0  0  0  0  0  0  0  0  0  0  0
   -1.7700    2.2918    0.0000 O   0  0  0  0  0  0  0  0  0  0  0  0
   -3.4892    0.3439    0.0000 C   0  0  0  0  0  0  0  0  0  0  0  0
   -4.4818   -0.7808    0.0000 C   0  0  0  0  0  0  0  0  0  0  0  0
   -3.5466   -1.9535    0.0000 C   0  0  0  0  0  0  0  0  0  0  0  0
   -5.7991   -1.4981    0.0000 C   0  0  0  0  0  0  0  0  0  0  0  0
   -4.9595    0.6412    0.0000 C   0  0  0  0  0  0  0  0  0  0  0  0
   -6.0841    1.6337    0.0000 C   0  0  0  0  0  0  0  0  0  0  0  0
   -7.5060    1.1560    0.0000 C   0  0  0  0  0  0  0  0  0  0  0  0
   -7.8033   -0.3142    0.0000 C   0  0  0  0  0  0  0  0  0  0  0  0
   -8.1006   -1.7844    0.0000 F   0  0  0  0  0  0  0  0  0  0  0  0
   -9.2735   -0.0169    0.0000 F   0  0  0  0  0  0  0  0  0  0  0  0
   -6.3330   -0.6115    0.0000 F   0  0  0  0  0  0  0  0  0  0  0  0
  1  2  2  0
  2  3  1  0
  3  4  1  0
  4  5  2  0
  5  6  1  0
  6  7  2  0
  7  8  1  0
  8  9  2  0
  8 10  1  0
  6 11  1  0
  2 12  1  0
 12 13  1  0
 13 14  2  0
 13 15  1  0
 15 16  1  0
 16 17  2  0
 16 18  1  0
 18 19  1  0
 19 20  1  0
 19 21  1  0
 19 22  1  0
 22 23  1  0
 23 24  2  0
 24 25  1  0
 25 26  1  0
 25 27  1  0
 25 28  1  0
  9  4  1  0
 22 18  1  0
M  END
>  <IC50>  (293) 
0.58

>  <cmpdNO>  (293) 
1027

$$$$

     RDKit          2D

 25 26  0  0  0  0  0  0  0  0999 V2000
    8.1986   -1.6710    0.0000 Cl  0  0  0  0  0  0  0  0  0  0  0  0
    7.0579   -0.6970    0.0000 C   0  0  0  0  0  0  0  0  0  0  0  0
    5.6440   -1.1979    0.0000 C   0  0  0  0  0  0  0  0  0  0  0  0
    4.5032   -0.2239    0.0000 C   0  0  0  0  0  0  0  0  0  0  0  0
    4.7764    1.2511    0.0000 C   0  0  0  0  0  0  0  0  0  0  0  0
    6.1903    1.7519    0.0000 C   0  0  0  0  0  0  0  0  0  0  0  0
    6.4635    3.2269    0.0000 F   0  0  0  0  0  0  0  0  0  0  0  0
    7.3310    0.7779    0.0000 C   0  0  0  0  0  0  0  0  0  0  0  0
    3.0893   -0.7247    0.0000 C   0  0  0  0  0  0  0  0  0  0  0  0
    2.8162   -2.1997    0.0000 O   0  0  0  0  0  0  0  0  0  0  0  0
    1.9486    0.2493    0.0000 N   0  0  0  0  0  0  0  0  0  0  0  0
    0.5347   -0.2516    0.0000 C   0  0  0  0  0  0  0  0  0  0  0  0
    0.2615   -1.7265    0.0000 O   0  0  0  0  0  0  0  0  0  0  0  0
   -0.6060    0.7224    0.0000 N   0  0  0  0  0  0  0  0  0  0  0  0
   -2.0199    0.2216    0.0000 C   0  0  0  0  0  0  0  0  0  0  0  0
   -2.2931   -1.2533    0.0000 S   0  0  0  0  0  0  0  0  0  0  0  0
   -3.1607    1.1956    0.0000 N   0  0  0  0  0  0  0  0  0  0  0  0
   -4.5746    0.6947    0.0000 C   0  0  0  0  0  0  0  0  0  0  0  0
   -5.7153    1.6687    0.0000 N   0  0  0  0  0  0  0  0  0  0  0  0
   -7.1292    1.1679    0.0000 C   0  0  0  0  0  0  0  0  0  0  0  0
   -7.4024   -0.3070    0.0000 C   0  0  0  0  0  0  0  0  0  0  0  0
   -6.2616   -1.2811    0.0000 C   0  0  0  0  0  0  0  0  0  0  0  0
   -4.8477   -0.7802    0.0000 N   0  0  0  0  0  0  0  0  0  0  0  0
   -6.5348   -2.7560    0.0000 C   0  0  0  0  0  0  0  0  0  0  0  0
   -8.2699    2.1419    0.0000 C   0  0  0  0  0  0  0  0  0  0  0  0
  1  2  1  0
  2  3  2  0
  3  4  1  0
  4  5  2  0
  5  6  1  0
  6  7  1  0
  6  8  2  0
  4  9  1  0
  9 10  2  0
  9 11  1  0
 11 12  1  0
 12 13  2  0
 12 14  1  0
 14 15  1  0
 15 16  2  0
 15 17  1  0
 17 18  1  0
 18 19  2  0
 19 20  1  0
 20 21  2  0
 21 22  1  0
 22 23  2  0
 22 24  1  0
 20 25  1  0
  8  2  1  0
 23 18  1  0
M  END
>  <IC50>  (294) 
1.36

>  <cmpdNO>  (294) 
1028

$$$$

     RDKit          2D

 26 27  0  0  0  0  0  0  0  0999 V2000
    8.5714   -1.4703    0.0000 Cl  0  0  0  0  0  0  0  0  0  0  0  0
    7.3929   -0.5425    0.0000 C   0  0  0  0  0  0  0  0  0  0  0  0
    6.0000   -1.0992    0.0000 C   0  0  0  0  0  0  0  0  0  0  0  0
    4.8214   -0.1713    0.0000 C   0  0  0  0  0  0  0  0  0  0  0  0
    5.0357    1.3133    0.0000 C   0  0  0  0  0  0  0  0  0  0  0  0
    6.4286    1.8700    0.0000 C   0  0  0  0  0  0  0  0  0  0  0  0
    6.6429    3.3547    0.0000 F   0  0  0  0  0  0  0  0  0  0  0  0
    7.6071    0.9422    0.0000 C   0  0  0  0  0  0  0  0  0  0  0  0
    3.4286   -0.7280    0.0000 C   0  0  0  0  0  0  0  0  0  0  0  0
    3.2143   -2.2126    0.0000 O   0  0  0  0  0  0  0  0  0  0  0  0
    2.2500    0.1999    0.0000 N   0  0  0  0  0  0  0  0  0  0  0  0
    0.8571   -0.3569    0.0000 C   0  0  0  0  0  0  0  0  0  0  0  0
    0.6429   -1.8415    0.0000 O   0  0  0  0  0  0  0  0  0  0  0  0
   -0.3214    0.5710    0.0000 N   0  0  0  0  0  0  0  0  0  0  0  0
   -1.7143    0.0143    0.0000 C   0  0  0  0  0  0  0  0  0  0  0  0
   -1.9286   -1.4703    0.0000 S   0  0  0  0  0  0  0  0  0  0  0  0
   -2.8929    0.9422    0.0000 N   0  0  0  0  0  0  0  0  0  0  0  0
   -4.2857    0.3854    0.0000 C   0  0  0  0  0  0  0  0  0  0  0  0
   -5.4643    1.3133    0.0000 N   0  0  0  0  0  0  0  0  0  0  0  0
   -6.8571    0.7566    0.0000 C   0  0  0  0  0  0  0  0  0  0  0  0
   -8.0357    1.6845    0.0000 O   0  0  0  0  0  0  0  0  0  0  0  0
   -7.8214    3.1691    0.0000 C   0  0  0  0  0  0  0  0  0  0  0  0
   -7.0714   -0.7280    0.0000 C   0  0  0  0  0  0  0  0  0  0  0  0
   -5.8929   -1.6559    0.0000 C   0  0  0  0  0  0  0  0  0  0  0  0
   -6.1071   -3.1405    0.0000 Cl  0  0  0  0  0  0  0  0  0  0  0  0
   -4.5000   -1.0992    0.0000 N   0  0  0  0  0  0  0  0  0  0  0  0
  1  2  1  0
  2  3  2  0
  3  4  1  0
  4  5  2  0
  5  6  1  0
  6  7  1  0
  6  8  2  0
  4  9  1  0
  9 10  2  0
  9 11  1  0
 11 12  1  0
 12 13  2  0
 12 14  1  0
 14 15  1  0
 15 16  2  0
 15 17  1  0
 17 18  1  0
 18 19  2  0
 19 20  1  0
 20 21  1  0
 21 22  1  0
 20 23  2  0
 23 24  1  0
 24 25  1  0
 24 26  2  0
  8  2  1  0
 26 18  1  0
M  END
>  <IC50>  (295) 
5.1

>  <cmpdNO>  (295) 
1029

$$$$

     RDKit          2D

 29 30  0  0  0  0  0  0  0  0999 V2000
   10.3036   -1.6657    0.0000 Cl  0  0  0  0  0  0  0  0  0  0  0  0
    9.1339   -0.7267    0.0000 C   0  0  0  0  0  0  0  0  0  0  0  0
    7.7358   -1.2702    0.0000 C   0  0  0  0  0  0  0  0  0  0  0  0
    6.5661   -0.3311    0.0000 C   0  0  0  0  0  0  0  0  0  0  0  0
    6.7945    1.1514    0.0000 C   0  0  0  0  0  0  0  0  0  0  0  0
    8.1926    1.6949    0.0000 C   0  0  0  0  0  0  0  0  0  0  0  0
    8.4209    3.1774    0.0000 Cl  0  0  0  0  0  0  0  0  0  0  0  0
    9.3623    0.7558    0.0000 C   0  0  0  0  0  0  0  0  0  0  0  0
    5.1680   -0.8746    0.0000 C   0  0  0  0  0  0  0  0  0  0  0  0
    3.9983    0.0644    0.0000 O   0  0  0  0  0  0  0  0  0  0  0  0
    2.6002   -0.4791    0.0000 C   0  0  0  0  0  0  0  0  0  0  0  0
    2.3719   -1.9616    0.0000 O   0  0  0  0  0  0  0  0  0  0  0  0
    1.4305    0.4600    0.0000 N   0  0  0  0  0  0  0  0  0  0  0  0
    0.0325   -0.0835    0.0000 C   0  0  0  0  0  0  0  0  0  0  0  0
   -0.1959   -1.5660    0.0000 O   0  0  0  0  0  0  0  0  0  0  0  0
   -1.1372    0.8555    0.0000 N   0  0  0  0  0  0  0  0  0  0  0  0
   -2.5353    0.3121    0.0000 C   0  0  0  0  0  0  0  0  0  0  0  0
   -2.7637   -1.1705    0.0000 S   0  0  0  0  0  0  0  0  0  0  0  0
   -3.7050    1.2511    0.0000 N   0  0  0  0  0  0  0  0  0  0  0  0
   -5.1031    0.7076    0.0000 C   0  0  0  0  0  0  0  0  0  0  0  0
   -6.2728    1.6466    0.0000 N   0  0  0  0  0  0  0  0  0  0  0  0
   -7.6709    1.1032    0.0000 C   0  0  0  0  0  0  0  0  0  0  0  0
   -8.8406    2.0422    0.0000 O   0  0  0  0  0  0  0  0  0  0  0  0
   -8.6122    3.5247    0.0000 C   0  0  0  0  0  0  0  0  0  0  0  0
   -7.8993   -0.3794    0.0000 C   0  0  0  0  0  0  0  0  0  0  0  0
   -6.7296   -1.3184    0.0000 C   0  0  0  0  0  0  0  0  0  0  0  0
   -6.9579   -2.8009    0.0000 O   0  0  0  0  0  0  0  0  0  0  0  0
   -8.3560   -3.3444    0.0000 C   0  0  0  0  0  0  0  0  0  0  0  0
   -5.3315   -0.7749    0.0000 N   0  0  0  0  0  0  0  0  0  0  0  0
  1  2  1  0
  2  3  2  0
  3  4  1  0
  4  5  2  0
  5  6  1  0
  6  7  1  0
  6  8  2  0
  4  9  1  0
  9 10  1  0
 10 11  1  0
 11 12  2  0
 11 13  1  0
 13 14  1  0
 14 15  2  0
 14 16  1  0
 16 17  1  0
 17 18  2  0
 17 19  1  0
 19 20  1  0
 20 21  2  0
 21 22  1  0
 22 23  1  0
 23 24  1  0
 22 25  2  0
 25 26  1  0
 26 27  1  0
 27 28  1  0
 26 29  2  0
  8  2  1  0
 29 20  1  0
M  END
>  <IC50>  (296) 
1.89

>  <cmpdNO>  (296) 
1030

$$$$

     RDKit          2D

 24 25  0  0  0  0  0  0  0  0999 V2000
   -4.1000   -2.1881    0.0000 Cl  0  0  0  0  0  0  0  0  0  0  0  0
   -5.2386   -1.2115    0.0000 C   0  0  0  0  0  0  0  0  0  0  0  0
   -6.6536   -1.7092    0.0000 C   0  0  0  0  0  0  0  0  0  0  0  0
   -7.7921   -0.7326    0.0000 N   0  0  0  0  0  0  0  0  0  0  0  0
   -7.5157    0.7417    0.0000 C   0  0  0  0  0  0  0  0  0  0  0  0
   -6.1006    1.2394    0.0000 C   0  0  0  0  0  0  0  0  0  0  0  0
   -4.9621    0.2628    0.0000 C   0  0  0  0  0  0  0  0  0  0  0  0
   -3.5471    0.7605    0.0000 C   0  0  0  0  0  0  0  0  0  0  0  0
   -3.2706    2.2348    0.0000 O   0  0  0  0  0  0  0  0  0  0  0  0
   -2.4085   -0.2160    0.0000 N   0  0  0  0  0  0  0  0  0  0  0  0
   -0.9935    0.2817    0.0000 C   0  0  0  0  0  0  0  0  0  0  0  0
   -0.7170    1.7560    0.0000 O   0  0  0  0  0  0  0  0  0  0  0  0
    0.1450   -0.6949    0.0000 N   0  0  0  0  0  0  0  0  0  0  0  0
    1.5601   -0.1972    0.0000 C   0  0  0  0  0  0  0  0  0  0  0  0
    1.8365    1.2771    0.0000 S   0  0  0  0  0  0  0  0  0  0  0  0
    2.6986   -1.1737    0.0000 N   0  0  0  0  0  0  0  0  0  0  0  0
    4.1136   -0.6760    0.0000 C   0  0  0  0  0  0  0  0  0  0  0  0
    5.2522   -1.6526    0.0000 N   0  0  0  0  0  0  0  0  0  0  0  0
    6.6672   -1.1549    0.0000 C   0  0  0  0  0  0  0  0  0  0  0  0
    6.9437    0.3194    0.0000 C   0  0  0  0  0  0  0  0  0  0  0  0
    5.8051    1.2960    0.0000 C   0  0  0  0  0  0  0  0  0  0  0  0
    6.0816    2.7703    0.0000 O   0  0  0  0  0  0  0  0  0  0  0  0
    4.3901    0.7983    0.0000 N   0  0  0  0  0  0  0  0  0  0  0  0
    7.8057   -2.1314    0.0000 C   0  0  0  0  0  0  0  0  0  0  0  0
  1  2  1  0
  2  3  2  0
  3  4  1  0
  4  5  2  0
  5  6  1  0
  6  7  2  0
  7  8  1  0
  8  9  2  0
  8 10  1  0
 10 11  1  0
 11 12  2  0
 11 13  1  0
 13 14  1  0
 14 15  2  0
 14 16  1  0
 16 17  1  0
 17 18  2  0
 18 19  1  0
 19 20  2  0
 20 21  1  0
 21 22  1  0
 21 23  2  0
 19 24  1  0
  7  2  1  0
 23 17  1  0
M  END
>  <IC50>  (297) 
8.58

>  <cmpdNO>  (297) 
1031

$$$$

     RDKit          2D

 22 24  0  0  0  0  0  0  0  0999 V2000
    1.7679   -0.8291    0.0000 S   0  0  0  0  0  0  0  0  0  0  0  0
    3.2117   -0.4225    0.0000 N   0  0  0  0  0  0  0  0  0  0  0  0
    3.2712    1.0763    0.0000 C   0  0  0  0  0  0  0  0  0  0  0  0
    4.5989    1.7742    0.0000 N   0  0  0  0  0  0  0  0  0  0  0  0
    5.8672    0.9733    0.0000 C   0  0  0  0  0  0  0  0  0  0  0  0
    7.1950    1.6712    0.0000 O   0  0  0  0  0  0  0  0  0  0  0  0
    5.8078   -0.5255    0.0000 C   0  0  0  0  0  0  0  0  0  0  0  0
    4.4800   -1.2234    0.0000 C   0  0  0  0  0  0  0  0  0  0  0  0
    4.4205   -2.7223    0.0000 C   0  0  0  0  0  0  0  0  0  0  0  0
    1.8641    1.5960    0.0000 N   0  0  0  0  0  0  0  0  0  0  0  0
    0.9350    0.4184    0.0000 C   0  0  0  0  0  0  0  0  0  0  0  0
   -0.5638    0.4778    0.0000 N   0  0  0  0  0  0  0  0  0  0  0  0
   -1.3647   -0.7904    0.0000 C   0  0  0  0  0  0  0  0  0  0  0  0
   -0.6668   -2.1182    0.0000 O   0  0  0  0  0  0  0  0  0  0  0  0
   -2.8635   -0.7310    0.0000 C   0  0  0  0  0  0  0  0  0  0  0  0
   -3.7926   -1.9086    0.0000 O   0  0  0  0  0  0  0  0  0  0  0  0
   -5.1997   -1.3889    0.0000 C   0  0  0  0  0  0  0  0  0  0  0  0
   -5.1403    0.1099    0.0000 C   0  0  0  0  0  0  0  0  0  0  0  0
   -6.3179    1.0390    0.0000 N   0  0  0  0  0  0  0  0  0  0  0  0
   -7.7113    0.4837    0.0000 O   0  0  0  0  0  0  0  0  0  0  0  0
   -6.1021    2.5234    0.0000 O   0  0  0  0  0  0  0  0  0  0  0  0
   -3.6964    0.5165    0.0000 C   0  0  0  0  0  0  0  0  0  0  0  0
  1  2  1  0
  2  3  1  0
  3  4  1  0
  4  5  2  0
  5  6  1  0
  5  7  1  0
  7  8  2  0
  8  9  1  0
  3 10  2  0
 10 11  1  0
 11 12  2  0
 12 13  1  0
 13 14  2  0
 13 15  1  0
 15 16  1  0
 16 17  1  0
 17 18  2  0
 18 19  1  0
 19 20  2  0
 19 21  1  0
 18 22  1  0
  1 11  1  0
 22 15  2  0
  8  2  1  0
M  CHG  2  19   1  21  -1
M  END
>  <IC50>  (298) 
0.67

>  <cmpdNO>  (298) 
1032

$$$$

     RDKit          2D

 26 28  0  0  0  0  0  0  0  0999 V2000
    0.6500   -0.5728    0.0000 S   0  0  0  0  0  0  0  0  0  0  0  0
    2.0794   -0.1181    0.0000 N   0  0  0  0  0  0  0  0  0  0  0  0
    2.0887    1.3818    0.0000 C   0  0  0  0  0  0  0  0  0  0  0  0
    3.3924    2.1238    0.0000 N   0  0  0  0  0  0  0  0  0  0  0  0
    4.6867    1.3658    0.0000 C   0  0  0  0  0  0  0  0  0  0  0  0
    5.9904    2.1077    0.0000 O   0  0  0  0  0  0  0  0  0  0  0  0
    7.2848    1.3497    0.0000 C   0  0  0  0  0  0  0  0  0  0  0  0
    8.5884    2.0916    0.0000 C   0  0  0  0  0  0  0  0  0  0  0  0
    4.6775   -0.1342    0.0000 C   0  0  0  0  0  0  0  0  0  0  0  0
    3.3738   -0.8762    0.0000 C   0  0  0  0  0  0  0  0  0  0  0  0
    3.3645   -2.3761    0.0000 O   0  0  0  0  0  0  0  0  0  0  0  0
    4.6589   -3.1342    0.0000 C   0  0  0  0  0  0  0  0  0  0  0  0
    4.6496   -4.6341    0.0000 C   0  0  0  0  0  0  0  0  0  0  0  0
    0.6650    1.8542    0.0000 N   0  0  0  0  0  0  0  0  0  0  0  0
   -0.2241    0.6461    0.0000 C   0  0  0  0  0  0  0  0  0  0  0  0
   -1.7241    0.6554    0.0000 N   0  0  0  0  0  0  0  0  0  0  0  0
   -2.4821   -0.6390    0.0000 C   0  0  0  0  0  0  0  0  0  0  0  0
   -1.7402   -1.9426    0.0000 O   0  0  0  0  0  0  0  0  0  0  0  0
   -3.9821   -0.6297    0.0000 C   0  0  0  0  0  0  0  0  0  0  0  0
   -4.8713   -1.8377    0.0000 O   0  0  0  0  0  0  0  0  0  0  0  0
   -6.2950   -1.3654    0.0000 C   0  0  0  0  0  0  0  0  0  0  0  0
   -6.2857    0.1346    0.0000 C   0  0  0  0  0  0  0  0  0  0  0  0
   -7.4937    1.0237    0.0000 N   0  0  0  0  0  0  0  0  0  0  0  0
   -8.8678    0.4221    0.0000 O   0  0  0  0  0  0  0  0  0  0  0  0
   -7.3277    2.5145    0.0000 O   0  0  0  0  0  0  0  0  0  0  0  0
   -4.8563    0.5893    0.0000 C   0  0  0  0  0  0  0  0  0  0  0  0
  1  2  1  0
  2  3  1  0
  3  4  1  0
  4  5  2  0
  5  6  1  0
  6  7  1  0
  7  8  1  0
  5  9  1  0
  9 10  2  0
 10 11  1  0
 11 12  1  0
 12 13  1  0
  3 14  2  0
 14 15  1  0
 15 16  2  0
 16 17  1  0
 17 18  2  0
 17 19  1  0
 19 20  1  0
 20 21  1  0
 21 22  2  0
 22 23  1  0
 23 24  2  0
 23 25  1  0
 22 26  1  0
  1 15  1  0
 26 19  2  0
 10  2  1  0
M  CHG  2  23   1  25  -1
M  END
>  <IC50>  (299) 
5.25

>  <cmpdNO>  (299) 
1033

$$$$

     RDKit          2D

 22 24  0  0  0  0  0  0  0  0999 V2000
    7.5304    1.1808    0.0000 Cl  0  0  0  0  0  0  0  0  0  0  0  0
    6.3069    0.3131    0.0000 C   0  0  0  0  0  0  0  0  0  0  0  0
    4.8857    0.7930    0.0000 O   0  0  0  0  0  0  0  0  0  0  0  0
    3.9901   -0.4104    0.0000 C   0  0  0  0  0  0  0  0  0  0  0  0
    4.8578   -1.6339    0.0000 C   0  0  0  0  0  0  0  0  0  0  0  0
    6.2896   -1.1868    0.0000 C   0  0  0  0  0  0  0  0  0  0  0  0
    2.4902   -0.3931    0.0000 C   0  0  0  0  0  0  0  0  0  0  0  0
    1.7254   -1.6835    0.0000 O   0  0  0  0  0  0  0  0  0  0  0  0
    1.7552    0.9144    0.0000 N   0  0  0  0  0  0  0  0  0  0  0  0
    0.2553    0.9317    0.0000 C   0  0  0  0  0  0  0  0  0  0  0  0
   -0.6403   -0.2717    0.0000 S   0  0  0  0  0  0  0  0  0  0  0  0
   -2.0614    0.2082    0.0000 N   0  0  0  0  0  0  0  0  0  0  0  0
   -2.0442    1.7081    0.0000 C   0  0  0  0  0  0  0  0  0  0  0  0
   -3.3345    2.4730    0.0000 N   0  0  0  0  0  0  0  0  0  0  0  0
   -4.6421    1.7380    0.0000 C   0  0  0  0  0  0  0  0  0  0  0  0
   -4.6593    0.2381    0.0000 C   0  0  0  0  0  0  0  0  0  0  0  0
   -3.3690   -0.5268    0.0000 C   0  0  0  0  0  0  0  0  0  0  0  0
   -3.3862   -2.0267    0.0000 O   0  0  0  0  0  0  0  0  0  0  0  0
   -4.6938   -2.7618    0.0000 C   0  0  0  0  0  0  0  0  0  0  0  0
   -4.7110   -4.2617    0.0000 C   0  0  0  0  0  0  0  0  0  0  0  0
   -5.9324    2.5028    0.0000 C   0  0  0  0  0  0  0  0  0  0  0  0
   -0.6124    2.1552    0.0000 N   0  0  0  0  0  0  0  0  0  0  0  0
  1  2  1  0
  2  3  1  0
  3  4  1  0
  4  5  2  0
  5  6  1  0
  4  7  1  0
  7  8  2  0
  7  9  1  0
  9 10  2  0
 10 11  1  0
 11 12  1  0
 12 13  1  0
 13 14  1  0
 14 15  2  0
 15 16  1  0
 16 17  2  0
 17 18  1  0
 18 19  1  0
 19 20  1  0
 15 21  1  0
 13 22  2  0
  6  2  2  0
 10 22  1  0
 17 12  1  0
M  END
>  <IC50>  (300) 
0.35

>  <cmpdNO>  (300) 
1034

$$$$

     RDKit          2D

 22 24  0  0  0  0  0  0  0  0999 V2000
    6.5427    1.9181    0.0000 Cl  0  0  0  0  0  0  0  0  0  0  0  0
    5.2112    1.2274    0.0000 C   0  0  0  0  0  0  0  0  0  0  0  0
    3.9473    2.0352    0.0000 N   0  0  0  0  0  0  0  0  0  0  0  0
    2.6158    1.3445    0.0000 C   0  0  0  0  0  0  0  0  0  0  0  0
    2.5482   -0.1540    0.0000 N   0  0  0  0  0  0  0  0  0  0  0  0
    1.1021   -0.5528    0.0000 S   0  0  0  0  0  0  0  0  0  0  0  0
    0.2761    0.6993    0.0000 C   0  0  0  0  0  0  0  0  0  0  0  0
    1.2115    1.8718    0.0000 N   0  0  0  0  0  0  0  0  0  0  0  0
   -1.2224    0.7669    0.0000 N   0  0  0  0  0  0  0  0  0  0  0  0
   -2.0302   -0.4970    0.0000 C   0  0  0  0  0  0  0  0  0  0  0  0
   -1.3395   -1.8285    0.0000 O   0  0  0  0  0  0  0  0  0  0  0  0
   -3.5287   -0.4294    0.0000 C   0  0  0  0  0  0  0  0  0  0  0  0
   -4.2194    0.9021    0.0000 N   0  0  0  0  0  0  0  0  0  0  0  0
   -5.7178    0.9697    0.0000 C   0  0  0  0  0  0  0  0  0  0  0  0
   -6.4085    2.3013    0.0000 Cl  0  0  0  0  0  0  0  0  0  0  0  0
   -6.5256   -0.2942    0.0000 C   0  0  0  0  0  0  0  0  0  0  0  0
   -5.8349   -1.6257    0.0000 C   0  0  0  0  0  0  0  0  0  0  0  0
   -4.3365   -1.6933    0.0000 C   0  0  0  0  0  0  0  0  0  0  0  0
    3.8121   -0.9618    0.0000 C   0  0  0  0  0  0  0  0  0  0  0  0
    3.7445   -2.4603    0.0000 O   0  0  0  0  0  0  0  0  0  0  0  0
    5.0084   -3.2681    0.0000 C   0  0  0  0  0  0  0  0  0  0  0  0
    5.1436   -0.2711    0.0000 C   0  0  0  0  0  0  0  0  0  0  0  0
  1  2  1  0
  2  3  2  0
  3  4  1  0
  4  5  1  0
  5  6  1  0
  6  7  1  0
  7  8  1  0
  7  9  2  0
  9 10  1  0
 10 11  2  0
 10 12  1  0
 12 13  2  0
 13 14  1  0
 14 15  1  0
 14 16  2  0
 16 17  1  0
 17 18  2  0
  5 19  1  0
 19 20  1  0
 20 21  1  0
 19 22  2  0
 22  2  1  0
  4  8  2  0
 18 12  1  0
M  END
>  <IC50>  (301) 
9.32

>  <cmpdNO>  (301) 
1035

$$$$

     RDKit          2D

 25 27  0  0  0  0  0  0  0  0999 V2000
    7.7653   -1.5656    0.0000 Cl  0  0  0  0  0  0  0  0  0  0  0  0
    6.7650   -0.4478    0.0000 C   0  0  0  0  0  0  0  0  0  0  0  0
    5.2968   -0.7552    0.0000 N   0  0  0  0  0  0  0  0  0  0  0  0
    4.2966    0.3626    0.0000 C   0  0  0  0  0  0  0  0  0  0  0  0
    4.7645    1.7878    0.0000 C   0  0  0  0  0  0  0  0  0  0  0  0
    6.2326    2.0951    0.0000 C   0  0  0  0  0  0  0  0  0  0  0  0
    7.2329    0.9773    0.0000 C   0  0  0  0  0  0  0  0  0  0  0  0
    2.8284    0.0552    0.0000 C   0  0  0  0  0  0  0  0  0  0  0  0
    2.3605   -1.3699    0.0000 O   0  0  0  0  0  0  0  0  0  0  0  0
    1.8281    1.1730    0.0000 N   0  0  0  0  0  0  0  0  0  0  0  0
    0.3599    0.8657    0.0000 C   0  0  0  0  0  0  0  0  0  0  0  0
   -0.2544   -0.5028    0.0000 S   0  0  0  0  0  0  0  0  0  0  0  0
   -1.7457   -0.3414    0.0000 N   0  0  0  0  0  0  0  0  0  0  0  0
   -2.0530    1.1268    0.0000 C   0  0  0  0  0  0  0  0  0  0  0  0
   -3.4782    1.5947    0.0000 N   0  0  0  0  0  0  0  0  0  0  0  0
   -4.5960    0.5944    0.0000 C   0  0  0  0  0  0  0  0  0  0  0  0
   -6.0211    1.0623    0.0000 O   0  0  0  0  0  0  0  0  0  0  0  0
   -6.3285    2.5304    0.0000 C   0  0  0  0  0  0  0  0  0  0  0  0
   -7.7537    2.9983    0.0000 C   0  0  0  0  0  0  0  0  0  0  0  0
   -4.2886   -0.8738    0.0000 C   0  0  0  0  0  0  0  0  0  0  0  0
   -2.8634   -1.3417    0.0000 C   0  0  0  0  0  0  0  0  0  0  0  0
   -2.5561   -2.8099    0.0000 O   0  0  0  0  0  0  0  0  0  0  0  0
   -3.6739   -3.8101    0.0000 C   0  0  0  0  0  0  0  0  0  0  0  0
   -3.3665   -5.2783    0.0000 C   0  0  0  0  0  0  0  0  0  0  0  0
   -0.7517    1.8728    0.0000 N   0  0  0  0  0  0  0  0  0  0  0  0
  1  2  1  0
  2  3  2  0
  3  4  1  0
  4  5  2  0
  5  6  1  0
  6  7  2  0
  4  8  1  0
  8  9  2  0
  8 10  1  0
 10 11  2  0
 11 12  1  0
 12 13  1  0
 13 14  1  0
 14 15  1  0
 15 16  2  0
 16 17  1  0
 17 18  1  0
 18 19  1  0
 16 20  1  0
 20 21  2  0
 21 22  1  0
 22 23  1  0
 23 24  1  0
 14 25  2  0
  7  2  1  0
 11 25  1  0
 21 13  1  0
M  END
>  <IC50>  (302) 
0.09

>  <cmpdNO>  (302) 
1036

$$$$

     RDKit          2D

 23 25  0  0  0  0  0  0  0  0999 V2000
    8.2284    0.5315    0.0000 Cl  0  0  0  0  0  0  0  0  0  0  0  0
    6.7434    0.3196    0.0000 C   0  0  0  0  0  0  0  0  0  0  0  0
    6.1845   -1.0724    0.0000 C   0  0  0  0  0  0  0  0  0  0  0  0
    4.6995   -1.2843    0.0000 C   0  0  0  0  0  0  0  0  0  0  0  0
    3.7735   -0.1043    0.0000 C   0  0  0  0  0  0  0  0  0  0  0  0
    4.3325    1.2877    0.0000 N   0  0  0  0  0  0  0  0  0  0  0  0
    5.8174    1.4996    0.0000 C   0  0  0  0  0  0  0  0  0  0  0  0
    2.2886   -0.3162    0.0000 C   0  0  0  0  0  0  0  0  0  0  0  0
    1.7296   -1.7082    0.0000 O   0  0  0  0  0  0  0  0  0  0  0  0
    1.3626    0.8638    0.0000 N   0  0  0  0  0  0  0  0  0  0  0  0
   -0.1224    0.6519    0.0000 C   0  0  0  0  0  0  0  0  0  0  0  0
   -0.8238   -0.6741    0.0000 S   0  0  0  0  0  0  0  0  0  0  0  0
   -2.3015   -0.4167    0.0000 N   0  0  0  0  0  0  0  0  0  0  0  0
   -2.5135    1.0682    0.0000 C   0  0  0  0  0  0  0  0  0  0  0  0
   -3.9054    1.6271    0.0000 N   0  0  0  0  0  0  0  0  0  0  0  0
   -5.0855    0.7011    0.0000 C   0  0  0  0  0  0  0  0  0  0  0  0
   -6.4775    1.2601    0.0000 O   0  0  0  0  0  0  0  0  0  0  0  0
   -6.6894    2.7450    0.0000 C   0  0  0  0  0  0  0  0  0  0  0  0
   -4.8735   -0.7838    0.0000 C   0  0  0  0  0  0  0  0  0  0  0  0
   -3.4816   -1.3428    0.0000 C   0  0  0  0  0  0  0  0  0  0  0  0
   -3.2696   -2.8277    0.0000 O   0  0  0  0  0  0  0  0  0  0  0  0
   -4.4497   -3.7537    0.0000 C   0  0  0  0  0  0  0  0  0  0  0  0
   -1.1667    1.7286    0.0000 N   0  0  0  0  0  0  0  0  0  0  0  0
  1  2  1  0
  2  3  2  0
  3  4  1  0
  4  5  2  0
  5  6  1  0
  6  7  2  0
  5  8  1  0
  8  9  2  0
  8 10  1  0
 10 11  2  0
 11 12  1  0
 12 13  1  0
 13 14  1  0
 14 15  1  0
 15 16  2  0
 16 17  1  0
 17 18  1  0
 16 19  1  0
 19 20  2  0
 20 21  1  0
 21 22  1  0
 14 23  2  0
  7  2  1  0
 11 23  1  0
 20 13  1  0
M  END
>  <IC50>  (303) 
2.41

>  <cmpdNO>  (303) 
1037

$$$$

     RDKit          2D

 22 23  0  0  0  0  0  0  0  0999 V2000
    6.1360   -2.5989    0.0000 Cl  0  0  0  0  0  0  0  0  0  0  0  0
    5.0922   -1.5216    0.0000 C   0  0  0  0  0  0  0  0  0  0  0  0
    3.6374   -1.8870    0.0000 N   0  0  0  0  0  0  0  0  0  0  0  0
    2.5935   -0.8098    0.0000 C   0  0  0  0  0  0  0  0  0  0  0  0
    3.0045    0.6328    0.0000 N   0  0  0  0  0  0  0  0  0  0  0  0
    4.4594    0.9982    0.0000 C   0  0  0  0  0  0  0  0  0  0  0  0
    4.8703    2.4408    0.0000 O   0  0  0  0  0  0  0  0  0  0  0  0
    6.3252    2.8062    0.0000 C   0  0  0  0  0  0  0  0  0  0  0  0
    5.5032   -0.0790    0.0000 C   0  0  0  0  0  0  0  0  0  0  0  0
    1.1387   -1.1752    0.0000 N   0  0  0  0  0  0  0  0  0  0  0  0
    0.0949   -0.0979    0.0000 C   0  0  0  0  0  0  0  0  0  0  0  0
    0.5059    1.3447    0.0000 O   0  0  0  0  0  0  0  0  0  0  0  0
   -1.3599   -0.4633    0.0000 N   0  0  0  0  0  0  0  0  0  0  0  0
   -2.4038    0.6139    0.0000 C   0  0  0  0  0  0  0  0  0  0  0  0
   -3.8586    0.2485    0.0000 C   0  0  0  0  0  0  0  0  0  0  0  0
   -4.9024    1.3258    0.0000 C   0  0  0  0  0  0  0  0  0  0  0  0
   -4.4914    2.7684    0.0000 F   0  0  0  0  0  0  0  0  0  0  0  0
   -6.3572    0.9604    0.0000 C   0  0  0  0  0  0  0  0  0  0  0  0
   -6.7682   -0.4822    0.0000 C   0  0  0  0  0  0  0  0  0  0  0  0
   -5.7244   -1.5594    0.0000 C   0  0  0  0  0  0  0  0  0  0  0  0
   -4.2696   -1.1941    0.0000 C   0  0  0  0  0  0  0  0  0  0  0  0
   -3.2257   -2.2713    0.0000 F   0  0  0  0  0  0  0  0  0  0  0  0
  1  2  1  0
  2  3  2  0
  3  4  1  0
  4  5  2  0
  5  6  1  0
  6  7  1  0
  7  8  1  0
  6  9  2  0
  4 10  1  0
 10 11  1  0
 11 12  2  0
 11 13  1  0
 13 14  1  0
 14 15  1  0
 15 16  2  0
 16 17  1  0
 16 18  1  0
 18 19  2  0
 19 20  1  0
 20 21  2  0
 21 22  1  0
  9  2  1  0
 21 15  1  0
M  END
>  <IC50>  (304) 
15.9

>  <cmpdNO>  (304) 
1038

$$$$

     RDKit          2D

 21 21  0  0  0  0  0  0  0  0999 V2000
    0.8596   -1.0502    0.0000 O   0  0  0  0  0  0  0  0  0  0  0  0
    0.3294   -2.4534    0.0000 C   0  0  0  0  0  0  0  0  0  0  0  0
    1.2795   -3.6141    0.0000 C   0  0  0  0  0  0  0  0  0  0  0  0
    0.7493   -5.0173    0.0000 C   0  0  0  0  0  0  0  0  0  0  0  0
   -1.1509   -2.6958    0.0000 C   0  0  0  0  0  0  0  0  0  0  0  0
   -1.6811   -4.0990    0.0000 C   0  0  0  0  0  0  0  0  0  0  0  0
   -0.0905    0.1105    0.0000 C   0  0  0  0  0  0  0  0  0  0  0  0
   -1.5708   -0.1319    0.0000 C   0  0  0  0  0  0  0  0  0  0  0  0
   -2.5208    1.0289    0.0000 C   0  0  0  0  0  0  0  0  0  0  0  0
   -1.9907    2.4320    0.0000 C   0  0  0  0  0  0  0  0  0  0  0  0
   -0.5104    2.6745    0.0000 C   0  0  0  0  0  0  0  0  0  0  0  0
    0.0198    4.0776    0.0000 N   0  0  0  0  0  0  0  0  0  0  0  0
    0.4397    1.5137    0.0000 C   0  0  0  0  0  0  0  0  0  0  0  0
    1.9200    1.7561    0.0000 N   0  0  0  0  0  0  0  0  0  0  0  0
    2.8701    0.5954    0.0000 O   0  0  0  0  0  0  0  0  0  0  0  0
    4.3504    0.8378    0.0000 C   0  0  0  0  0  0  0  0  0  0  0  0
    4.8806    2.2410    0.0000 O   0  0  0  0  0  0  0  0  0  0  0  0
    5.3004   -0.3229    0.0000 C   0  0  0  0  0  0  0  0  0  0  0  0
   -4.0011    0.7865    0.0000 C   0  0  0  0  0  0  0  0  0  0  0  0
   -4.9512    1.9472    0.0000 O   0  0  0  0  0  0  0  0  0  0  0  0
   -4.5313   -0.6167    0.0000 O   0  0  0  0  0  0  0  0  0  0  0  0
  1  2  1  0
  2  3  1  0
  3  4  1  0
  2  5  1  0
  5  6  1  0
  1  7  1  0
  7  8  1  0
  8  9  2  0
  9 10  1  0
 10 11  1  0
 11 12  1  0
 11 13  1  0
 13 14  1  0
 14 15  1  0
 15 16  1  0
 16 17  2  0
 16 18  1  0
  9 19  1  0
 19 20  1  0
 19 21  2  0
 13  7  1  0
M  END
>  <IC50>  (305) 
0.001

>  <cmpdNO>  (305) 
1039

$$$$

     RDKit          2D

 21 21  0  0  0  0  0  0  0  0999 V2000
   -0.9240   -0.0916    0.0000 O   0  0  0  0  0  0  0  0  0  0  0  0
   -1.7985    1.1271    0.0000 C   0  0  0  0  0  0  0  0  0  0  0  0
   -3.2912    0.9792    0.0000 C   0  0  0  0  0  0  0  0  0  0  0  0
   -4.1657    2.1979    0.0000 C   0  0  0  0  0  0  0  0  0  0  0  0
   -5.6584    2.0499    0.0000 C   0  0  0  0  0  0  0  0  0  0  0  0
   -6.5329    3.2686    0.0000 C   0  0  0  0  0  0  0  0  0  0  0  0
    0.5686    0.0564    0.0000 C   0  0  0  0  0  0  0  0  0  0  0  0
    1.1868    1.4231    0.0000 C   0  0  0  0  0  0  0  0  0  0  0  0
    2.6795    1.5710    0.0000 C   0  0  0  0  0  0  0  0  0  0  0  0
    3.5540    0.3523    0.0000 C   0  0  0  0  0  0  0  0  0  0  0  0
    2.9358   -1.0144    0.0000 C   0  0  0  0  0  0  0  0  0  0  0  0
    3.8103   -2.2331    0.0000 N   0  0  0  0  0  0  0  0  0  0  0  0
    1.4431   -1.1624    0.0000 C   0  0  0  0  0  0  0  0  0  0  0  0
    0.8249   -2.5290    0.0000 N   0  0  0  0  0  0  0  0  0  0  0  0
   -0.6678   -2.6770    0.0000 O   0  0  0  0  0  0  0  0  0  0  0  0
   -1.2860   -4.0437    0.0000 C   0  0  0  0  0  0  0  0  0  0  0  0
   -0.4115   -5.2624    0.0000 O   0  0  0  0  0  0  0  0  0  0  0  0
   -2.7786   -4.1916    0.0000 C   0  0  0  0  0  0  0  0  0  0  0  0
    3.2977    2.9377    0.0000 C   0  0  0  0  0  0  0  0  0  0  0  0
    4.7904    3.0857    0.0000 O   0  0  0  0  0  0  0  0  0  0  0  0
    2.4232    4.1564    0.0000 O   0  0  0  0  0  0  0  0  0  0  0  0
  1  2  1  0
  2  3  1  0
  3  4  1  0
  4  5  1  0
  5  6  1  0
  1  7  1  0
  7  8  1  0
  8  9  2  0
  9 10  1  0
 10 11  1  0
 11 12  1  0
 11 13  1  0
 13 14  1  0
 14 15  1  0
 15 16  1  0
 16 17  2  0
 16 18  1  0
  9 19  1  0
 19 20  1  0
 19 21  2  0
 13  7  1  0
M  END
>  <IC50>  (306) 
0.13

>  <cmpdNO>  (306) 
1040

$$$$

     RDKit          2D

 19 19  0  0  0  0  0  0  0  0999 V2000
    0.9169   -1.2830    0.0000 O   0  0  0  0  0  0  0  0  0  0  0  0
    0.6069   -2.7506    0.0000 C   0  0  0  0  0  0  0  0  0  0  0  0
    1.7229   -3.7529    0.0000 O   0  0  0  0  0  0  0  0  0  0  0  0
    1.4128   -5.2205    0.0000 C   0  0  0  0  0  0  0  0  0  0  0  0
   -0.1991   -0.2807    0.0000 C   0  0  0  0  0  0  0  0  0  0  0  0
   -1.6251   -0.7460    0.0000 C   0  0  0  0  0  0  0  0  0  0  0  0
   -2.7410    0.2563    0.0000 C   0  0  0  0  0  0  0  0  0  0  0  0
   -2.4310    1.7239    0.0000 C   0  0  0  0  0  0  0  0  0  0  0  0
   -1.0050    2.1892    0.0000 C   0  0  0  0  0  0  0  0  0  0  0  0
   -0.6950    3.6568    0.0000 N   0  0  0  0  0  0  0  0  0  0  0  0
    0.1110    1.1869    0.0000 C   0  0  0  0  0  0  0  0  0  0  0  0
    1.5370    1.6522    0.0000 N   0  0  0  0  0  0  0  0  0  0  0  0
    2.6529    0.6499    0.0000 O   0  0  0  0  0  0  0  0  0  0  0  0
    4.0789    1.1152    0.0000 C   0  0  0  0  0  0  0  0  0  0  0  0
    4.3890    2.5828    0.0000 O   0  0  0  0  0  0  0  0  0  0  0  0
    5.1949    0.1129    0.0000 C   0  0  0  0  0  0  0  0  0  0  0  0
   -4.1670   -0.2090    0.0000 C   0  0  0  0  0  0  0  0  0  0  0  0
   -5.2830    0.7933    0.0000 O   0  0  0  0  0  0  0  0  0  0  0  0
   -4.4771   -1.6767    0.0000 O   0  0  0  0  0  0  0  0  0  0  0  0
  1  2  1  0
  2  3  1  0
  3  4  1  0
  1  5  1  0
  5  6  1  0
  6  7  2  0
  7  8  1  0
  8  9  1  0
  9 10  1  0
  9 11  1  0
 11 12  1  0
 12 13  1  0
 13 14  1  0
 14 15  2  0
 14 16  1  0
  7 17  1  0
 17 18  1  0
 17 19  2  0
 11  5  1  0
M  END
>  <IC50>  (307) 
2

>  <cmpdNO>  (307) 
1041

$$$$

     RDKit          2D

 22 22  0  0  0  0  0  0  0  0999 V2000
   -5.0122    3.2642    0.0000 F   0  0  0  0  0  0  0  0  0  0  0  0
   -4.1282    2.0524    0.0000 C   0  0  0  0  0  0  0  0  0  0  0  0
   -5.3400    1.1684    0.0000 F   0  0  0  0  0  0  0  0  0  0  0  0
   -2.9163    2.9363    0.0000 F   0  0  0  0  0  0  0  0  0  0  0  0
   -3.2442    0.8405    0.0000 C   0  0  0  0  0  0  0  0  0  0  0  0
   -1.7527    1.0001    0.0000 C   0  0  0  0  0  0  0  0  0  0  0  0
   -0.8688   -0.2117    0.0000 O   0  0  0  0  0  0  0  0  0  0  0  0
    0.6227   -0.0521    0.0000 C   0  0  0  0  0  0  0  0  0  0  0  0
    1.2302    1.3193    0.0000 C   0  0  0  0  0  0  0  0  0  0  0  0
    2.7217    1.4789    0.0000 C   0  0  0  0  0  0  0  0  0  0  0  0
    3.6057    0.2671    0.0000 C   0  0  0  0  0  0  0  0  0  0  0  0
    2.9982   -1.1044    0.0000 C   0  0  0  0  0  0  0  0  0  0  0  0
    3.8821   -2.3162    0.0000 N   0  0  0  0  0  0  0  0  0  0  0  0
    1.5067   -1.2640    0.0000 C   0  0  0  0  0  0  0  0  0  0  0  0
    0.8992   -2.6355    0.0000 N   0  0  0  0  0  0  0  0  0  0  0  0
   -0.5923   -2.7951    0.0000 O   0  0  0  0  0  0  0  0  0  0  0  0
   -1.1998   -4.1665    0.0000 C   0  0  0  0  0  0  0  0  0  0  0  0
   -0.3159   -5.3784    0.0000 O   0  0  0  0  0  0  0  0  0  0  0  0
   -2.6913   -4.3261    0.0000 C   0  0  0  0  0  0  0  0  0  0  0  0
    3.3292    2.8504    0.0000 C   0  0  0  0  0  0  0  0  0  0  0  0
    4.8207    3.0100    0.0000 O   0  0  0  0  0  0  0  0  0  0  0  0
    2.4453    4.0623    0.0000 O   0  0  0  0  0  0  0  0  0  0  0  0
  1  2  1  0
  2  3  1  0
  2  4  1  0
  2  5  1  0
  5  6  1  0
  6  7  1  0
  7  8  1  0
  8  9  1  0
  9 10  2  0
 10 11  1  0
 11 12  1  0
 12 13  1  0
 12 14  1  0
 14 15  1  0
 15 16  1  0
 16 17  1  0
 17 18  2  0
 17 19  1  0
 10 20  1  0
 20 21  1  0
 20 22  2  0
 14  8  1  0
M  END
>  <IC50>  (308) 
0.225

>  <cmpdNO>  (308) 
1042

$$$$

     RDKit          2D

 19 19  0  0  0  0  0  0  0  0999 V2000
    0.9169   -1.2830    0.0000 O   0  0  0  0  0  0  0  0  0  0  0  0
    0.6069   -2.7506    0.0000 C   0  0  0  0  0  0  0  0  0  0  0  0
    1.7229   -3.7529    0.0000 C   0  0  0  0  0  0  0  0  0  0  0  0
    1.4128   -5.2205    0.0000 C   0  0  0  0  0  0  0  0  0  0  0  0
   -0.1991   -0.2807    0.0000 C   0  0  0  0  0  0  0  0  0  0  0  0
   -1.6251   -0.7460    0.0000 C   0  0  0  0  0  0  0  0  0  0  0  0
   -2.7410    0.2563    0.0000 C   0  0  0  0  0  0  0  0  0  0  0  0
   -2.4310    1.7239    0.0000 C   0  0  0  0  0  0  0  0  0  0  0  0
   -1.0050    2.1892    0.0000 C   0  0  0  0  0  0  0  0  0  0  0  0
   -0.6950    3.6568    0.0000 N   0  0  0  0  0  0  0  0  0  0  0  0
    0.1110    1.1869    0.0000 C   0  0  0  0  0  0  0  0  0  0  0  0
    1.5370    1.6522    0.0000 N   0  0  0  0  0  0  0  0  0  0  0  0
    2.6529    0.6499    0.0000 O   0  0  0  0  0  0  0  0  0  0  0  0
    4.0789    1.1152    0.0000 C   0  0  0  0  0  0  0  0  0  0  0  0
    4.3890    2.5828    0.0000 O   0  0  0  0  0  0  0  0  0  0  0  0
    5.1949    0.1129    0.0000 C   0  0  0  0  0  0  0  0  0  0  0  0
   -4.1670   -0.2090    0.0000 C   0  0  0  0  0  0  0  0  0  0  0  0
   -5.2830    0.7933    0.0000 O   0  0  0  0  0  0  0  0  0  0  0  0
   -4.4771   -1.6767    0.0000 O   0  0  0  0  0  0  0  0  0  0  0  0
  1  2  1  0
  2  3  1  0
  3  4  2  0
  1  5  1  0
  5  6  1  0
  6  7  2  0
  7  8  1  0
  8  9  1  0
  9 10  1  0
  9 11  1  0
 11 12  1  0
 12 13  1  0
 13 14  1  0
 14 15  2  0
 14 16  1  0
  7 17  1  0
 17 18  1  0
 17 19  2  0
 11  5  1  0
M  END
>  <IC50>  (309) 
2.2

>  <cmpdNO>  (309) 
1043

$$$$

     RDKit          2D

 22 23  0  0  0  0  0  0  0  0999 V2000
   -0.7201   -0.3176    0.0000 O   0  0  0  0  0  0  0  0  0  0  0  0
   -1.2135   -1.7341    0.0000 C   0  0  0  0  0  0  0  0  0  0  0  0
   -2.6870   -2.0150    0.0000 C   0  0  0  0  0  0  0  0  0  0  0  0
   -3.3258   -3.3722    0.0000 C   0  0  0  0  0  0  0  0  0  0  0  0
   -4.8140   -3.1841    0.0000 C   0  0  0  0  0  0  0  0  0  0  0  0
   -5.0949   -1.7106    0.0000 C   0  0  0  0  0  0  0  0  0  0  0  0
   -3.7803   -0.9881    0.0000 C   0  0  0  0  0  0  0  0  0  0  0  0
    0.7534   -0.0367    0.0000 C   0  0  0  0  0  0  0  0  0  0  0  0
    1.7334   -1.1723    0.0000 C   0  0  0  0  0  0  0  0  0  0  0  0
    3.2068   -0.8914    0.0000 C   0  0  0  0  0  0  0  0  0  0  0  0
    3.7003    0.5251    0.0000 C   0  0  0  0  0  0  0  0  0  0  0  0
    2.7203    1.6607    0.0000 C   0  0  0  0  0  0  0  0  0  0  0  0
    3.2137    3.0772    0.0000 N   0  0  0  0  0  0  0  0  0  0  0  0
    1.2468    1.3798    0.0000 C   0  0  0  0  0  0  0  0  0  0  0  0
    0.2668    2.5154    0.0000 N   0  0  0  0  0  0  0  0  0  0  0  0
   -1.2066    2.2345    0.0000 O   0  0  0  0  0  0  0  0  0  0  0  0
   -2.1867    3.3701    0.0000 C   0  0  0  0  0  0  0  0  0  0  0  0
   -1.6932    4.7866    0.0000 O   0  0  0  0  0  0  0  0  0  0  0  0
   -3.6601    3.0892    0.0000 C   0  0  0  0  0  0  0  0  0  0  0  0
    4.1869   -2.0270    0.0000 C   0  0  0  0  0  0  0  0  0  0  0  0
    3.6934   -3.4435    0.0000 O   0  0  0  0  0  0  0  0  0  0  0  0
    5.6603   -1.7461    0.0000 O   0  0  0  0  0  0  0  0  0  0  0  0
  1  2  1  0
  2  3  1  0
  3  4  1  0
  4  5  1  0
  5  6  1  0
  6  7  1  0
  1  8  1  0
  8  9  1  0
  9 10  2  0
 10 11  1  0
 11 12  1  0
 12 13  1  0
 12 14  1  0
 14 15  1  0
 15 16  1  0
 16 17  1  0
 17 18  2  0
 17 19  1  0
 10 20  1  0
 20 21  1  0
 20 22  2  0
  7  3  1  0
 14  8  1  0
M  END
>  <IC50>  (310) 
0.022

>  <cmpdNO>  (310) 
1044

$$$$

     RDKit          2D

 22 23  0  0  0  0  0  0  0  0999 V2000
   -0.7500   -0.9448    0.0000 O   0  0  0  0  0  0  0  0  0  0  0  0
   -0.0000    0.3543    0.0000 C   0  0  0  0  0  0  0  0  0  0  0  0
    1.5000    0.3543    0.0000 C   0  0  0  0  0  0  0  0  0  0  0  0
    2.2500    1.6533    0.0000 C   0  0  0  0  0  0  0  0  0  0  0  0
    1.5000    2.9524    0.0000 C   0  0  0  0  0  0  0  0  0  0  0  0
    0.0000    2.9524    0.0000 C   0  0  0  0  0  0  0  0  0  0  0  0
   -0.7500    4.2514    0.0000 N   0  0  0  0  0  0  0  0  0  0  0  0
   -0.7500    1.6533    0.0000 C   0  0  0  0  0  0  0  0  0  0  0  0
   -2.2500    1.6533    0.0000 N   0  0  0  0  0  0  0  0  0  0  0  0
   -3.0000    0.3543    0.0000 O   0  0  0  0  0  0  0  0  0  0  0  0
   -4.5000    0.3543    0.0000 C   0  0  0  0  0  0  0  0  0  0  0  0
   -5.2500    1.6533    0.0000 O   0  0  0  0  0  0  0  0  0  0  0  0
   -5.2500   -0.9448    0.0000 C   0  0  0  0  0  0  0  0  0  0  0  0
    3.7500    1.6533    0.0000 C   0  0  0  0  0  0  0  0  0  0  0  0
    4.5000    0.3543    0.0000 O   0  0  0  0  0  0  0  0  0  0  0  0
    4.5000    2.9524    0.0000 O   0  0  0  0  0  0  0  0  0  0  0  0
   -0.0000   -2.2438    0.0000 C   0  0  0  0  0  0  0  0  0  0  0  0
   -0.7500   -3.5428    0.0000 C   0  0  0  0  0  0  0  0  0  0  0  0
   -0.0000   -4.8419    0.0000 C   0  0  0  0  0  0  0  0  0  0  0  0
    1.5000   -4.8419    0.0000 C   0  0  0  0  0  0  0  0  0  0  0  0
    2.2500   -3.5428    0.0000 C   0  0  0  0  0  0  0  0  0  0  0  0
    1.5000   -2.2438    0.0000 C   0  0  0  0  0  0  0  0  0  0  0  0
  1  2  1  0
  2  3  1  0
  3  4  2  0
  4  5  1  0
  5  6  1  0
  6  7  1  0
  6  8  1  0
  8  9  1  0
  9 10  1  0
 10 11  1  0
 11 12  2  0
 11 13  1  0
  4 14  1  0
 14 15  1  0
 14 16  2  0
  1 17  1  0
 17 18  1  0
 18 19  1  0
 19 20  1  0
 20 21  1  0
 21 22  1  0
  8  2  1  0
 22 17  1  0
M  END
>  <IC50>  (311) 
0.06

>  <cmpdNO>  (311) 
1045

$$$$

     RDKit          2D

 22 23  0  0  0  0  0  0  0  0999 V2000
   -0.7500   -0.9448    0.0000 O   0  0  0  0  0  0  0  0  0  0  0  0
   -0.0000    0.3543    0.0000 C   0  0  0  0  0  0  0  0  0  0  0  0
    1.5000    0.3543    0.0000 C   0  0  0  0  0  0  0  0  0  0  0  0
    2.2500    1.6533    0.0000 C   0  0  0  0  0  0  0  0  0  0  0  0
    1.5000    2.9524    0.0000 C   0  0  0  0  0  0  0  0  0  0  0  0
    0.0000    2.9524    0.0000 C   0  0  0  0  0  0  0  0  0  0  0  0
   -0.7500    4.2514    0.0000 N   0  0  0  0  0  0  0  0  0  0  0  0
   -0.7500    1.6533    0.0000 C   0  0  0  0  0  0  0  0  0  0  0  0
   -2.2500    1.6533    0.0000 N   0  0  0  0  0  0  0  0  0  0  0  0
   -3.0000    0.3543    0.0000 O   0  0  0  0  0  0  0  0  0  0  0  0
   -4.5000    0.3543    0.0000 C   0  0  0  0  0  0  0  0  0  0  0  0
   -5.2500    1.6533    0.0000 O   0  0  0  0  0  0  0  0  0  0  0  0
   -5.2500   -0.9448    0.0000 C   0  0  0  0  0  0  0  0  0  0  0  0
    3.7500    1.6533    0.0000 C   0  0  0  0  0  0  0  0  0  0  0  0
    4.5000    0.3543    0.0000 O   0  0  0  0  0  0  0  0  0  0  0  0
    4.5000    2.9524    0.0000 O   0  0  0  0  0  0  0  0  0  0  0  0
   -0.0000   -2.2438    0.0000 C   0  0  0  0  0  0  0  0  0  0  0  0
   -0.7500   -3.5428    0.0000 C   0  0  0  0  0  0  0  0  0  0  0  0
   -0.0000   -4.8419    0.0000 C   0  0  0  0  0  0  0  0  0  0  0  0
    1.5000   -4.8419    0.0000 C   0  0  0  0  0  0  0  0  0  0  0  0
    2.2500   -3.5428    0.0000 C   0  0  0  0  0  0  0  0  0  0  0  0
    1.5000   -2.2438    0.0000 C   0  0  0  0  0  0  0  0  0  0  0  0
  1  2  1  0
  2  3  1  0
  3  4  2  0
  4  5  1  0
  5  6  1  0
  6  7  1  0
  6  8  1  0
  8  9  1  0
  9 10  1  0
 10 11  1  0
 11 12  2  0
 11 13  1  0
  4 14  1  0
 14 15  1  0
 14 16  2  0
  1 17  1  0
 17 18  2  0
 18 19  1  0
 19 20  2  0
 20 21  1  0
 21 22  2  0
  8  2  1  0
 22 17  1  0
M  END
>  <IC50>  (312) 
0.53

>  <cmpdNO>  (312) 
1046

$$$$

     RDKit          2D

 21 21  0  0  0  0  0  0  0  0999 V2000
    5.2407   -1.4211    0.0000 F   0  0  0  0  0  0  0  0  0  0  0  0
    3.8023   -0.9957    0.0000 C   0  0  0  0  0  0  0  0  0  0  0  0
    4.2278    0.4427    0.0000 F   0  0  0  0  0  0  0  0  0  0  0  0
    3.3768   -2.4341    0.0000 F   0  0  0  0  0  0  0  0  0  0  0  0
    2.3639   -0.5702    0.0000 C   0  0  0  0  0  0  0  0  0  0  0  0
    2.0132    0.8882    0.0000 O   0  0  0  0  0  0  0  0  0  0  0  0
    1.2763   -1.6032    0.0000 N   0  0  0  0  0  0  0  0  0  0  0  0
   -0.1621   -1.1777    0.0000 C   0  0  0  0  0  0  0  0  0  0  0  0
   -1.2498   -2.2107    0.0000 C   0  0  0  0  0  0  0  0  0  0  0  0
   -0.8991   -3.6691    0.0000 N   0  0  0  0  0  0  0  0  0  0  0  0
   -2.6882   -1.7852    0.0000 C   0  0  0  0  0  0  0  0  0  0  0  0
   -3.0389   -0.3268    0.0000 C   0  0  0  0  0  0  0  0  0  0  0  0
   -1.9513    0.7062    0.0000 C   0  0  0  0  0  0  0  0  0  0  0  0
   -0.5129    0.2807    0.0000 C   0  0  0  0  0  0  0  0  0  0  0  0
    0.5748    1.3137    0.0000 O   0  0  0  0  0  0  0  0  0  0  0  0
    0.2241    2.7721    0.0000 C   0  0  0  0  0  0  0  0  0  0  0  0
    1.3117    3.8050    0.0000 C   0  0  0  0  0  0  0  0  0  0  0  0
    0.9610    5.2635    0.0000 C   0  0  0  0  0  0  0  0  0  0  0  0
   -4.4773    0.0987    0.0000 C   0  0  0  0  0  0  0  0  0  0  0  0
   -4.8280    1.5571    0.0000 O   0  0  0  0  0  0  0  0  0  0  0  0
   -5.5650   -0.9343    0.0000 O   0  0  0  0  0  0  0  0  0  0  0  0
  1  2  1  0
  2  3  1  0
  2  4  1  0
  2  5  1  0
  5  6  2  0
  5  7  1  0
  7  8  1  0
  8  9  1  0
  9 10  1  0
  9 11  1  0
 11 12  1  0
 12 13  2  0
 13 14  1  0
 14 15  1  0
 15 16  1  0
 16 17  1  0
 17 18  1  0
 12 19  1  0
 19 20  1  0
 19 21  2  0
 14  8  1  0
M  END
>  <IC50>  (313) 
0.1

>  <cmpdNO>  (313) 
1047

$$$$

     RDKit          2D

 19 19  0  0  0  0  0  0  0  0999 V2000
    1.2206   -0.8826    0.0000 O   0  0  0  0  0  0  0  0  0  0  0  0
    1.2032   -2.3825    0.0000 C   0  0  0  0  0  0  0  0  0  0  0  0
    2.4935   -3.1474    0.0000 C   0  0  0  0  0  0  0  0  0  0  0  0
    2.4762   -4.6473    0.0000 C   0  0  0  0  0  0  0  0  0  0  0  0
   -0.0697   -0.1176    0.0000 C   0  0  0  0  0  0  0  0  0  0  0  0
   -1.3773   -0.8526    0.0000 C   0  0  0  0  0  0  0  0  0  0  0  0
   -2.6676   -0.0876    0.0000 C   0  0  0  0  0  0  0  0  0  0  0  0
   -2.6503    1.4123    0.0000 C   0  0  0  0  0  0  0  0  0  0  0  0
   -1.3427    2.1472    0.0000 C   0  0  0  0  0  0  0  0  0  0  0  0
   -1.3254    3.6471    0.0000 N   0  0  0  0  0  0  0  0  0  0  0  0
   -0.0524    1.3823    0.0000 C   0  0  0  0  0  0  0  0  0  0  0  0
    1.2552    2.1172    0.0000 N   0  0  0  0  0  0  0  0  0  0  0  0
    2.5455    1.3523    0.0000 C   0  0  0  0  0  0  0  0  0  0  0  0
    2.5282   -0.1476    0.0000 O   0  0  0  0  0  0  0  0  0  0  0  0
    3.8531    2.0872    0.0000 C   0  0  0  0  0  0  0  0  0  0  0  0
    5.1434    1.3223    0.0000 C   0  0  0  0  0  0  0  0  0  0  0  0
   -3.9752   -0.8226    0.0000 C   0  0  0  0  0  0  0  0  0  0  0  0
   -5.2655   -0.0576    0.0000 O   0  0  0  0  0  0  0  0  0  0  0  0
   -3.9926   -2.3225    0.0000 O   0  0  0  0  0  0  0  0  0  0  0  0
  1  2  1  0
  2  3  1  0
  3  4  1  0
  1  5  1  0
  5  6  1  0
  6  7  2  0
  7  8  1  0
  8  9  1  0
  9 10  1  0
  9 11  1  0
 11 12  1  0
 12 13  1  0
 13 14  2  0
 13 15  1  0
 15 16  1  0
  7 17  1  0
 17 18  1  0
 17 19  2  0
 11  5  1  0
M  END
>  <IC50>  (314) 
1.5

>  <cmpdNO>  (314) 
1048

$$$$

     RDKit          2D

 21 21  0  0  0  0  0  0  0  0999 V2000
    0.3934   -1.8934    0.0000 O   0  0  0  0  0  0  0  0  0  0  0  0
   -0.2569   -3.2451    0.0000 C   0  0  0  0  0  0  0  0  0  0  0  0
    0.5886   -4.4842    0.0000 C   0  0  0  0  0  0  0  0  0  0  0  0
   -0.0617   -5.8359    0.0000 C   0  0  0  0  0  0  0  0  0  0  0  0
   -0.4521   -0.6544    0.0000 C   0  0  0  0  0  0  0  0  0  0  0  0
   -1.9479   -0.7671    0.0000 C   0  0  0  0  0  0  0  0  0  0  0  0
   -2.7934    0.4719    0.0000 C   0  0  0  0  0  0  0  0  0  0  0  0
   -2.1431    1.8236    0.0000 C   0  0  0  0  0  0  0  0  0  0  0  0
   -0.6473    1.9363    0.0000 C   0  0  0  0  0  0  0  0  0  0  0  0
    0.0030    3.2880    0.0000 N   0  0  0  0  0  0  0  0  0  0  0  0
    1.4987    3.4007    0.0000 C   0  0  0  0  0  0  0  0  0  0  0  0
    2.1490    4.7525    0.0000 N   0  0  0  0  0  0  0  0  0  0  0  0
    0.1982    0.6973    0.0000 C   0  0  0  0  0  0  0  0  0  0  0  0
    1.6939    0.8100    0.0000 N   0  0  0  0  0  0  0  0  0  0  0  0
    2.5394   -0.4290    0.0000 O   0  0  0  0  0  0  0  0  0  0  0  0
    4.0352   -0.3163    0.0000 C   0  0  0  0  0  0  0  0  0  0  0  0
    4.6854    1.0354    0.0000 O   0  0  0  0  0  0  0  0  0  0  0  0
    4.8807   -1.5553    0.0000 C   0  0  0  0  0  0  0  0  0  0  0  0
   -4.2891    0.3592    0.0000 C   0  0  0  0  0  0  0  0  0  0  0  0
   -5.1346    1.5982    0.0000 O   0  0  0  0  0  0  0  0  0  0  0  0
   -4.9394   -0.9925    0.0000 O   0  0  0  0  0  0  0  0  0  0  0  0
  1  2  1  0
  2  3  1  0
  3  4  1  0
  1  5  1  0
  5  6  1  0
  6  7  2  0
  7  8  1  0
  8  9  1  0
  9 10  1  0
 10 11  1  0
 11 12  2  0
  9 13  1  0
 13 14  1  0
 14 15  1  0
 15 16  1  0
 16 17  2  0
 16 18  1  0
  7 19  1  0
 19 20  1  0
 19 21  2  0
 13  5  1  0
M  END
>  <IC50>  (315) 
0.14

>  <cmpdNO>  (315) 
1049

$$$$

     RDKit          2D

 22 22  0  0  0  0  0  0  0  0999 V2000
    0.0198   -2.0121    0.0000 O   0  0  0  0  0  0  0  0  0  0  0  0
   -0.8041   -3.2655    0.0000 C   0  0  0  0  0  0  0  0  0  0  0  0
   -0.1307   -4.6058    0.0000 C   0  0  0  0  0  0  0  0  0  0  0  0
   -0.9546   -5.8593    0.0000 C   0  0  0  0  0  0  0  0  0  0  0  0
   -0.6537   -0.6718    0.0000 C   0  0  0  0  0  0  0  0  0  0  0  0
   -2.1511   -0.5849    0.0000 C   0  0  0  0  0  0  0  0  0  0  0  0
   -2.8246    0.7554    0.0000 C   0  0  0  0  0  0  0  0  0  0  0  0
   -2.0006    2.0088    0.0000 C   0  0  0  0  0  0  0  0  0  0  0  0
   -0.5032    1.9219    0.0000 C   0  0  0  0  0  0  0  0  0  0  0  0
    0.3208    3.1753    0.0000 N   0  0  0  0  0  0  0  0  0  0  0  0
    1.8183    3.0884    0.0000 C   0  0  0  0  0  0  0  0  0  0  0  0
    2.6423    4.3418    0.0000 N   0  0  0  0  0  0  0  0  0  0  0  0
    2.4918    1.7481    0.0000 N   0  0  0  0  0  0  0  0  0  0  0  0
    0.1703    0.5816    0.0000 C   0  0  0  0  0  0  0  0  0  0  0  0
    1.6678    0.4947    0.0000 N   0  0  0  0  0  0  0  0  0  0  0  0
    2.3413   -0.8456    0.0000 O   0  0  0  0  0  0  0  0  0  0  0  0
    3.8388   -0.9325    0.0000 C   0  0  0  0  0  0  0  0  0  0  0  0
    4.6628    0.3209    0.0000 O   0  0  0  0  0  0  0  0  0  0  0  0
    4.5123   -2.2728    0.0000 C   0  0  0  0  0  0  0  0  0  0  0  0
   -4.3221    0.8423    0.0000 C   0  0  0  0  0  0  0  0  0  0  0  0
   -4.9956    2.1826    0.0000 O   0  0  0  0  0  0  0  0  0  0  0  0
   -5.1461   -0.4112    0.0000 O   0  0  0  0  0  0  0  0  0  0  0  0
  1  2  1  0
  2  3  1  0
  3  4  1  0
  1  5  1  0
  5  6  1  0
  6  7  2  0
  7  8  1  0
  8  9  1  0
  9 10  1  0
 10 11  1  0
 11 12  1  0
 11 13  2  0
  9 14  1  0
 14 15  1  0
 15 16  1  0
 16 17  1  0
 17 18  2  0
 17 19  1  0
  7 20  1  0
 20 21  1  0
 20 22  2  0
 14  5  1  0
M  END
>  <IC50>  (316) 
0.002

>  <cmpdNO>  (316) 
1050

$$$$

     RDKit          2D

 23 23  0  0  0  0  0  0  0  0999 V2000
   -0.9584   -1.9835    0.0000 O   0  0  0  0  0  0  0  0  0  0  0  0
   -2.1863   -2.8452    0.0000 C   0  0  0  0  0  0  0  0  0  0  0  0
   -2.0540   -4.3393    0.0000 C   0  0  0  0  0  0  0  0  0  0  0  0
   -3.2818   -5.2010    0.0000 C   0  0  0  0  0  0  0  0  0  0  0  0
   -1.0907   -0.4894    0.0000 C   0  0  0  0  0  0  0  0  0  0  0  0
   -2.4508    0.1431    0.0000 C   0  0  0  0  0  0  0  0  0  0  0  0
   -2.5831    1.6373    0.0000 C   0  0  0  0  0  0  0  0  0  0  0  0
   -1.3552    2.4989    0.0000 C   0  0  0  0  0  0  0  0  0  0  0  0
    0.0049    1.8664    0.0000 C   0  0  0  0  0  0  0  0  0  0  0  0
    1.2327    2.7280    0.0000 N   0  0  0  0  0  0  0  0  0  0  0  0
    2.5928    2.0955    0.0000 C   0  0  0  0  0  0  0  0  0  0  0  0
    3.8207    2.9571    0.0000 N   0  0  0  0  0  0  0  0  0  0  0  0
    5.1808    2.3246    0.0000 C   0  0  0  0  0  0  0  0  0  0  0  0
    2.7251    0.6013    0.0000 N   0  0  0  0  0  0  0  0  0  0  0  0
    0.1371    0.3722    0.0000 C   0  0  0  0  0  0  0  0  0  0  0  0
    1.4973   -0.2603    0.0000 N   0  0  0  0  0  0  0  0  0  0  0  0
    1.6295   -1.7544    0.0000 O   0  0  0  0  0  0  0  0  0  0  0  0
    2.9897   -2.3870    0.0000 C   0  0  0  0  0  0  0  0  0  0  0  0
    4.2175   -1.5253    0.0000 O   0  0  0  0  0  0  0  0  0  0  0  0
    3.1219   -3.8811    0.0000 C   0  0  0  0  0  0  0  0  0  0  0  0
   -3.9432    2.2698    0.0000 C   0  0  0  0  0  0  0  0  0  0  0  0
   -4.0755    3.7640    0.0000 O   0  0  0  0  0  0  0  0  0  0  0  0
   -5.1710    1.4082    0.0000 O   0  0  0  0  0  0  0  0  0  0  0  0
  1  2  1  0
  2  3  1  0
  3  4  1  0
  1  5  1  0
  5  6  1  0
  6  7  2  0
  7  8  1  0
  8  9  1  0
  9 10  1  0
 10 11  1  0
 11 12  2  0
 12 13  1  0
 11 14  1  0
  9 15  1  0
 15 16  1  0
 16 17  1  0
 17 18  1  0
 18 19  2  0
 18 20  1  0
  7 21  1  0
 21 22  1  0
 21 23  2  0
 15  5  1  0
M  END
>  <IC50>  (317) 
0.005

>  <cmpdNO>  (317) 
1051

$$$$

     RDKit          2D

 17 18  0  0  0  0  0  0  0  0999 V2000
   -0.6601    1.3401    0.0000 S   0  0  0  0  0  0  0  0  0  0  0  0
   -2.1583    1.4133    0.0000 C   0  0  0  0  0  0  0  0  0  0  0  0
   -2.6909    0.0110    0.0000 C   0  0  0  0  0  0  0  0  0  0  0  0
   -1.5218   -0.9288    0.0000 N   0  0  0  0  0  0  0  0  0  0  0  0
   -0.2668   -0.1074    0.0000 C   0  0  0  0  0  0  0  0  0  0  0  0
    1.1355   -0.6400    0.0000 C   0  0  0  0  0  0  0  0  0  0  0  0
    1.3754   -2.1206    0.0000 C   0  0  0  0  0  0  0  0  0  0  0  0
    2.7777   -2.6532    0.0000 C   0  0  0  0  0  0  0  0  0  0  0  0
    3.9401   -1.7051    0.0000 C   0  0  0  0  0  0  0  0  0  0  0  0
    3.7001   -0.2244    0.0000 C   0  0  0  0  0  0  0  0  0  0  0  0
    2.2979    0.3082    0.0000 C   0  0  0  0  0  0  0  0  0  0  0  0
    2.0580    1.7889    0.0000 C   0  0  0  0  0  0  0  0  0  0  0  0
    3.2203    2.7370    0.0000 O   0  0  0  0  0  0  0  0  0  0  0  0
    0.6557    2.3214    0.0000 O   0  0  0  0  0  0  0  0  0  0  0  0
   -4.1384   -0.3823    0.0000 C   0  0  0  0  0  0  0  0  0  0  0  0
   -5.2028    0.6745    0.0000 O   0  0  0  0  0  0  0  0  0  0  0  0
   -4.5215   -1.8326    0.0000 O   0  0  0  0  0  0  0  0  0  0  0  0
  1  2  1  0
  2  3  1  0
  3  4  1  0
  4  5  1  0
  5  6  1  0
  6  7  2  0
  7  8  1  0
  8  9  2  0
  9 10  1  0
 10 11  2  0
 11 12  1  0
 12 13  1  0
 12 14  2  0
  3 15  1  0
 15 16  1  0
 15 17  2  0
  5  1  1  0
 11  6  1  0
M  END
>  <IC50>  (318) 
18.1

>  <cmpdNO>  (318) 
1052

$$$$

     RDKit          2D

 16 17  0  0  0  0  0  0  0  0999 V2000
   -0.8040    1.5716    0.0000 S   0  0  0  0  0  0  0  0  0  0  0  0
   -2.3040    1.5674    0.0000 C   0  0  0  0  0  0  0  0  0  0  0  0
   -2.7635    0.1395    0.0000 C   0  0  0  0  0  0  0  0  0  0  0  0
   -1.5474   -0.7387    0.0000 N   0  0  0  0  0  0  0  0  0  0  0  0
   -0.3364    0.1464    0.0000 C   0  0  0  0  0  0  0  0  0  0  0  0
    1.0915   -0.3131    0.0000 C   0  0  0  0  0  0  0  0  0  0  0  0
    1.4075   -1.7795    0.0000 C   0  0  0  0  0  0  0  0  0  0  0  0
    2.8354   -2.2389    0.0000 C   0  0  0  0  0  0  0  0  0  0  0  0
    3.9473   -1.2321    0.0000 C   0  0  0  0  0  0  0  0  0  0  0  0
    3.6312    0.2342    0.0000 C   0  0  0  0  0  0  0  0  0  0  0  0
    4.7431    1.2411    0.0000 O   0  0  0  0  0  0  0  0  0  0  0  0
    2.2034    0.6937    0.0000 C   0  0  0  0  0  0  0  0  0  0  0  0
    1.8873    2.1601    0.0000 O   0  0  0  0  0  0  0  0  0  0  0  0
   -4.1887   -0.3280    0.0000 C   0  0  0  0  0  0  0  0  0  0  0  0
   -5.3063    0.6725    0.0000 O   0  0  0  0  0  0  0  0  0  0  0  0
   -4.4964   -1.7961    0.0000 O   0  0  0  0  0  0  0  0  0  0  0  0
  1  2  1  0
  2  3  1  0
  3  4  1  0
  4  5  1  0
  5  6  1  0
  6  7  2  0
  7  8  1  0
  8  9  2  0
  9 10  1  0
 10 11  1  0
 10 12  2  0
 12 13  1  0
  3 14  1  0
 14 15  1  0
 14 16  2  0
  5  1  1  0
 12  6  1  0
M  END
>  <IC50>  (319) 
12.3

>  <cmpdNO>  (319) 
1053

$$$$

     RDKit          2D

 18 19  0  0  0  0  0  0  0  0999 V2000
   -2.1704   -3.5278    0.0000 Cl  0  0  0  0  0  0  0  0  0  0  0  0
   -2.1252   -2.0285    0.0000 C   0  0  0  0  0  0  0  0  0  0  0  0
   -0.8042   -1.3180    0.0000 C   0  0  0  0  0  0  0  0  0  0  0  0
    0.4717   -2.1067    0.0000 O   0  0  0  0  0  0  0  0  0  0  0  0
   -0.7590    0.1814    0.0000 N   0  0  0  0  0  0  0  0  0  0  0  0
    0.4805    1.0261    0.0000 C   0  0  0  0  0  0  0  0  0  0  0  0
    0.0602    2.4660    0.0000 S   0  0  0  0  0  0  0  0  0  0  0  0
   -1.4392    2.5112    0.0000 C   0  0  0  0  0  0  0  0  0  0  0  0
   -1.9454    1.0992    0.0000 C   0  0  0  0  0  0  0  0  0  0  0  0
   -3.3853    0.6788    0.0000 C   0  0  0  0  0  0  0  0  0  0  0  0
   -4.4693    1.7156    0.0000 O   0  0  0  0  0  0  0  0  0  0  0  0
   -3.7412   -0.7783    0.0000 O   0  0  0  0  0  0  0  0  0  0  0  0
    1.8925    0.5198    0.0000 C   0  0  0  0  0  0  0  0  0  0  0  0
    2.1600   -0.9561    0.0000 C   0  0  0  0  0  0  0  0  0  0  0  0
    3.5720   -1.4624    0.0000 C   0  0  0  0  0  0  0  0  0  0  0  0
    4.7165   -0.4927    0.0000 C   0  0  0  0  0  0  0  0  0  0  0  0
    4.4489    0.9832    0.0000 C   0  0  0  0  0  0  0  0  0  0  0  0
    3.0369    1.4895    0.0000 C   0  0  0  0  0  0  0  0  0  0  0  0
  1  2  1  0
  2  3  1  0
  3  4  2  0
  3  5  1  0
  5  6  1  0
  6  7  1  0
  7  8  1  0
  8  9  1  0
  9 10  1  0
 10 11  1  0
 10 12  2  0
  6 13  1  0
 13 14  2  0
 14 15  1  0
 15 16  2  0
 16 17  1  0
 17 18  2  0
  9  5  1  0
 18 13  1  0
M  END
>  <IC50>  (320) 
7.53

>  <cmpdNO>  (320) 
1054

$$$$

     RDKit          2D

 19 20  0  0  0  0  0  0  0  0999 V2000
   -2.6389   -3.4600    0.0000 Cl  0  0  0  0  0  0  0  0  0  0  0  0
   -2.4587   -1.9709    0.0000 C   0  0  0  0  0  0  0  0  0  0  0  0
   -1.0790   -1.3824    0.0000 C   0  0  0  0  0  0  0  0  0  0  0  0
    0.1205   -2.2830    0.0000 O   0  0  0  0  0  0  0  0  0  0  0  0
   -0.8988    0.1068    0.0000 N   0  0  0  0  0  0  0  0  0  0  0  0
    0.4119    0.8363    0.0000 C   0  0  0  0  0  0  0  0  0  0  0  0
    0.1231    2.3082    0.0000 S   0  0  0  0  0  0  0  0  0  0  0  0
   -1.3661    2.4884    0.0000 C   0  0  0  0  0  0  0  0  0  0  0  0
   -1.9976    1.1278    0.0000 C   0  0  0  0  0  0  0  0  0  0  0  0
   -3.4696    0.8390    0.0000 C   0  0  0  0  0  0  0  0  0  0  0  0
   -4.4556    1.9694    0.0000 O   0  0  0  0  0  0  0  0  0  0  0  0
   -3.9554   -0.5801    0.0000 O   0  0  0  0  0  0  0  0  0  0  0  0
    1.7724    0.2047    0.0000 C   0  0  0  0  0  0  0  0  0  0  0  0
    1.9058   -1.2893    0.0000 C   0  0  0  0  0  0  0  0  0  0  0  0
    3.2663   -1.9209    0.0000 C   0  0  0  0  0  0  0  0  0  0  0  0
    4.4936   -1.0584    0.0000 C   0  0  0  0  0  0  0  0  0  0  0  0
    4.3602    0.4357    0.0000 C   0  0  0  0  0  0  0  0  0  0  0  0
    2.9996    1.0673    0.0000 C   0  0  0  0  0  0  0  0  0  0  0  0
    2.8663    2.5613    0.0000 O   0  0  0  0  0  0  0  0  0  0  0  0
  1  2  1  0
  2  3  1  0
  3  4  2  0
  3  5  1  0
  5  6  1  0
  6  7  1  0
  7  8  1  0
  8  9  1  0
  9 10  1  0
 10 11  1  0
 10 12  2  0
  6 13  1  0
 13 14  2  0
 14 15  1  0
 15 16  2  0
 16 17  1  0
 17 18  2  0
 18 19  1  0
  9  5  1  0
 18 13  1  0
M  END
>  <IC50>  (321) 
5.84

>  <cmpdNO>  (321) 
1055

$$$$

     RDKit          2D

 21 22  0  0  0  0  0  0  0  0999 V2000
   -3.5732   -3.1505    0.0000 Cl  0  0  0  0  0  0  0  0  0  0  0  0
   -3.1119   -1.7232    0.0000 C   0  0  0  0  0  0  0  0  0  0  0  0
   -1.6451   -1.4091    0.0000 C   0  0  0  0  0  0  0  0  0  0  0  0
   -0.6397   -2.5223    0.0000 O   0  0  0  0  0  0  0  0  0  0  0  0
   -1.1838    0.0182    0.0000 N   0  0  0  0  0  0  0  0  0  0  0  0
    0.2421    0.4839    0.0000 C   0  0  0  0  0  0  0  0  0  0  0  0
    0.2399    1.9839    0.0000 S   0  0  0  0  0  0  0  0  0  0  0  0
   -1.1874    2.4452    0.0000 C   0  0  0  0  0  0  0  0  0  0  0  0
   -2.0673    1.2304    0.0000 C   0  0  0  0  0  0  0  0  0  0  0  0
   -3.5673    1.2281    0.0000 C   0  0  0  0  0  0  0  0  0  0  0  0
   -4.3192    2.5260    0.0000 O   0  0  0  0  0  0  0  0  0  0  0  0
   -4.3153   -0.0721    0.0000 O   0  0  0  0  0  0  0  0  0  0  0  0
    1.4570   -0.3960    0.0000 C   0  0  0  0  0  0  0  0  0  0  0  0
    1.3024   -1.8880    0.0000 C   0  0  0  0  0  0  0  0  0  0  0  0
    2.5173   -2.7678    0.0000 C   0  0  0  0  0  0  0  0  0  0  0  0
    3.8867   -2.1557    0.0000 C   0  0  0  0  0  0  0  0  0  0  0  0
    4.0412   -0.6637    0.0000 C   0  0  0  0  0  0  0  0  0  0  0  0
    2.8264    0.2162    0.0000 C   0  0  0  0  0  0  0  0  0  0  0  0
    2.9809    1.7082    0.0000 C   0  0  0  0  0  0  0  0  0  0  0  0
    4.3503    2.3204    0.0000 O   0  0  0  0  0  0  0  0  0  0  0  0
    1.7661    2.5880    0.0000 O   0  0  0  0  0  0  0  0  0  0  0  0
  1  2  1  0
  2  3  1  0
  3  4  2  0
  3  5  1  0
  5  6  1  0
  6  7  1  0
  7  8  1  0
  8  9  1  0
  9 10  1  0
 10 11  1  0
 10 12  2  0
  6 13  1  0
 13 14  2  0
 14 15  1  0
 15 16  2  0
 16 17  1  0
 17 18  2  0
 18 19  1  0
 19 20  1  0
 19 21  2  0
  9  5  1  0
 18 13  1  0
M  END
>  <IC50>  (322) 
10.7

>  <cmpdNO>  (322) 
1056

$$$$

     RDKit          2D

 20 21  0  0  0  0  0  0  0  0999 V2000
   -2.5273   -3.6517    0.0000 Cl  0  0  0  0  0  0  0  0  0  0  0  0
   -2.6208   -2.1546    0.0000 C   0  0  0  0  0  0  0  0  0  0  0  0
   -1.3711   -1.3251    0.0000 C   0  0  0  0  0  0  0  0  0  0  0  0
   -0.0278   -1.9926    0.0000 O   0  0  0  0  0  0  0  0  0  0  0  0
   -1.4646    0.1720    0.0000 N   0  0  0  0  0  0  0  0  0  0  0  0
   -0.3084    1.1276    0.0000 C   0  0  0  0  0  0  0  0  0  0  0  0
   -0.8600    2.5225    0.0000 S   0  0  0  0  0  0  0  0  0  0  0  0
   -2.3571    2.4290    0.0000 C   0  0  0  0  0  0  0  0  0  0  0  0
   -2.7307    0.9763    0.0000 C   0  0  0  0  0  0  0  0  0  0  0  0
   -4.1257    0.4247    0.0000 C   0  0  0  0  0  0  0  0  0  0  0  0
   -5.3008    1.3569    0.0000 O   0  0  0  0  0  0  0  0  0  0  0  0
   -4.3454   -1.0591    0.0000 O   0  0  0  0  0  0  0  0  0  0  0  0
    1.1443    0.7540    0.0000 C   0  0  0  0  0  0  0  0  0  0  0  0
    1.5471   -0.6909    0.0000 C   0  0  0  0  0  0  0  0  0  0  0  0
    2.9998   -1.0646    0.0000 C   0  0  0  0  0  0  0  0  0  0  0  0
    4.0497    0.0066    0.0000 C   0  0  0  0  0  0  0  0  0  0  0  0
    3.6470    1.4516    0.0000 C   0  0  0  0  0  0  0  0  0  0  0  0
    2.1942    1.8252    0.0000 C   0  0  0  0  0  0  0  0  0  0  0  0
    5.5024   -0.3670    0.0000 C   0  0  0  0  0  0  0  0  0  0  0  0
    6.9551   -0.7407    0.0000 N   0  0  0  0  0  0  0  0  0  0  0  0
  1  2  1  0
  2  3  1  0
  3  4  2  0
  3  5  1  0
  5  6  1  0
  6  7  1  0
  7  8  1  0
  8  9  1  0
  9 10  1  0
 10 11  1  0
 10 12  2  0
  6 13  1  0
 13 14  2  0
 14 15  1  0
 15 16  2  0
 16 17  1  0
 17 18  2  0
 16 19  1  0
 19 20  3  0
  9  5  1  0
 18 13  1  0
M  END
>  <IC50>  (323) 
8.64

>  <cmpdNO>  (323) 
1057

$$$$

     RDKit          2D

 21 22  0  0  0  0  0  0  0  0999 V2000
   -3.5732   -3.1505    0.0000 Cl  0  0  0  0  0  0  0  0  0  0  0  0
   -3.1119   -1.7232    0.0000 C   0  0  0  0  0  0  0  0  0  0  0  0
   -1.6451   -1.4091    0.0000 C   0  0  0  0  0  0  0  0  0  0  0  0
   -0.6397   -2.5223    0.0000 O   0  0  0  0  0  0  0  0  0  0  0  0
   -1.1838    0.0182    0.0000 N   0  0  0  0  0  0  0  0  0  0  0  0
    0.2421    0.4839    0.0000 C   0  0  0  0  0  0  0  0  0  0  0  0
    0.2399    1.9839    0.0000 S   0  0  0  0  0  0  0  0  0  0  0  0
   -1.1874    2.4452    0.0000 C   0  0  0  0  0  0  0  0  0  0  0  0
   -2.0673    1.2304    0.0000 C   0  0  0  0  0  0  0  0  0  0  0  0
   -3.5673    1.2281    0.0000 C   0  0  0  0  0  0  0  0  0  0  0  0
   -4.3192    2.5260    0.0000 O   0  0  0  0  0  0  0  0  0  0  0  0
   -4.3153   -0.0721    0.0000 O   0  0  0  0  0  0  0  0  0  0  0  0
    1.4570   -0.3960    0.0000 C   0  0  0  0  0  0  0  0  0  0  0  0
    1.3024   -1.8880    0.0000 C   0  0  0  0  0  0  0  0  0  0  0  0
    2.5173   -2.7678    0.0000 C   0  0  0  0  0  0  0  0  0  0  0  0
    3.8867   -2.1557    0.0000 C   0  0  0  0  0  0  0  0  0  0  0  0
    4.0412   -0.6637    0.0000 C   0  0  0  0  0  0  0  0  0  0  0  0
    2.8264    0.2162    0.0000 C   0  0  0  0  0  0  0  0  0  0  0  0
    2.9809    1.7082    0.0000 N   0  0  0  0  0  0  0  0  0  0  0  0
    1.7661    2.5880    0.0000 O   0  0  0  0  0  0  0  0  0  0  0  0
    4.3503    2.3204    0.0000 O   0  0  0  0  0  0  0  0  0  0  0  0
  1  2  1  0
  2  3  1  0
  3  4  2  0
  3  5  1  0
  5  6  1  0
  6  7  1  0
  7  8  1  0
  8  9  1  0
  9 10  1  0
 10 11  1  0
 10 12  2  0
  6 13  1  0
 13 14  2  0
 14 15  1  0
 15 16  2  0
 16 17  1  0
 17 18  2  0
 18 19  1  0
 19 20  2  0
 19 21  1  0
  9  5  1  0
 18 13  1  0
M  CHG  2  19   1  21  -1
M  END
>  <IC50>  (324) 
7.65

>  <cmpdNO>  (324) 
1058

$$$$

     RDKit          2D

 21 22  0  0  0  0  0  0  0  0999 V2000
   -3.4696   -3.3257    0.0000 Cl  0  0  0  0  0  0  0  0  0  0  0  0
   -3.1888   -1.8522    0.0000 C   0  0  0  0  0  0  0  0  0  0  0  0
   -1.7723   -1.3587    0.0000 C   0  0  0  0  0  0  0  0  0  0  0  0
   -0.6366   -2.3387    0.0000 O   0  0  0  0  0  0  0  0  0  0  0  0
   -1.4914    0.1147    0.0000 N   0  0  0  0  0  0  0  0  0  0  0  0
   -0.1342    0.7536    0.0000 C   0  0  0  0  0  0  0  0  0  0  0  0
   -0.3224    2.2417    0.0000 S   0  0  0  0  0  0  0  0  0  0  0  0
   -1.7959    2.5226    0.0000 C   0  0  0  0  0  0  0  0  0  0  0  0
   -2.5183    1.2080    0.0000 C   0  0  0  0  0  0  0  0  0  0  0  0
   -4.0065    1.0198    0.0000 C   0  0  0  0  0  0  0  0  0  0  0  0
   -4.9135    2.2145    0.0000 O   0  0  0  0  0  0  0  0  0  0  0  0
   -4.5876   -0.3630    0.0000 O   0  0  0  0  0  0  0  0  0  0  0  0
    1.1803    0.0311    0.0000 C   0  0  0  0  0  0  0  0  0  0  0  0
    1.2119   -1.4686    0.0000 C   0  0  0  0  0  0  0  0  0  0  0  0
    2.5265   -2.1910    0.0000 C   0  0  0  0  0  0  0  0  0  0  0  0
    3.8094   -1.4138    0.0000 C   0  0  0  0  0  0  0  0  0  0  0  0
    3.7778    0.0858    0.0000 C   0  0  0  0  0  0  0  0  0  0  0  0
    5.0608    0.8630    0.0000 O   0  0  0  0  0  0  0  0  0  0  0  0
    6.3753    0.1406    0.0000 C   0  0  0  0  0  0  0  0  0  0  0  0
    2.4633    0.8083    0.0000 C   0  0  0  0  0  0  0  0  0  0  0  0
    2.4317    2.3080    0.0000 O   0  0  0  0  0  0  0  0  0  0  0  0
  1  2  1  0
  2  3  1  0
  3  4  2  0
  3  5  1  0
  5  6  1  0
  6  7  1  0
  7  8  1  0
  8  9  1  0
  9 10  1  0
 10 11  1  0
 10 12  2  0
  6 13  1  0
 13 14  2  0
 14 15  1  0
 15 16  2  0
 16 17  1  0
 17 18  1  0
 18 19  1  0
 17 20  2  0
 20 21  1  0
  9  5  1  0
 20 13  1  0
M  END
>  <IC50>  (325) 
7.92

>  <cmpdNO>  (325) 
1059

$$$$

     RDKit          2D

 17 18  0  0  0  0  0  0  0  0999 V2000
   -1.9770   -3.5146    0.0000 Cl  0  0  0  0  0  0  0  0  0  0  0  0
   -1.9051   -2.0163    0.0000 C   0  0  0  0  0  0  0  0  0  0  0  0
   -0.5716   -1.3294    0.0000 C   0  0  0  0  0  0  0  0  0  0  0  0
    0.6900   -2.1408    0.0000 O   0  0  0  0  0  0  0  0  0  0  0  0
   -0.4997    0.1688    0.0000 N   0  0  0  0  0  0  0  0  0  0  0  0
    0.7547    0.9913    0.0000 C   0  0  0  0  0  0  0  0  0  0  0  0
    0.3601    2.4385    0.0000 S   0  0  0  0  0  0  0  0  0  0  0  0
   -1.1382    2.5104    0.0000 C   0  0  0  0  0  0  0  0  0  0  0  0
   -1.6695    1.1077    0.0000 C   0  0  0  0  0  0  0  0  0  0  0  0
   -3.1167    0.7131    0.0000 C   0  0  0  0  0  0  0  0  0  0  0  0
   -4.1820    1.7691    0.0000 O   0  0  0  0  0  0  0  0  0  0  0  0
   -3.4985   -0.7375    0.0000 O   0  0  0  0  0  0  0  0  0  0  0  0
    2.1575    0.4600    0.0000 C   0  0  0  0  0  0  0  0  0  0  0  0
    3.4118    1.2824    0.0000 O   0  0  0  0  0  0  0  0  0  0  0  0
    4.5817    0.3436    0.0000 C   0  0  0  0  0  0  0  0  0  0  0  0
    4.0503   -1.0591    0.0000 C   0  0  0  0  0  0  0  0  0  0  0  0
    2.5521   -0.9872    0.0000 C   0  0  0  0  0  0  0  0  0  0  0  0
  1  2  1  0
  2  3  1  0
  3  4  2  0
  3  5  1  0
  5  6  1  0
  6  7  1  0
  7  8  1  0
  8  9  1  0
  9 10  1  0
 10 11  1  0
 10 12  2  0
  6 13  1  0
 13 14  1  0
 14 15  1  0
 15 16  2  0
 16 17  1  0
  9  5  1  0
 17 13  2  0
M  END
>  <IC50>  (326) 
12.9

>  <cmpdNO>  (326) 
1060

$$$$

     RDKit          2D

 23 25  0  0  0  0  0  0  0  0999 V2000
   -2.9785   -2.1349    0.0000 S   0  0  0  0  0  0  0  0  0  0  0  0
   -1.9662   -3.2419    0.0000 C   0  0  0  0  0  0  0  0  0  0  0  0
   -0.6007   -2.6213    0.0000 C   0  0  0  0  0  0  0  0  0  0  0  0
   -0.7689   -1.1308    0.0000 N   0  0  0  0  0  0  0  0  0  0  0  0
    0.3381   -0.1185    0.0000 C   0  0  0  0  0  0  0  0  0  0  0  0
    0.0149    1.3463    0.0000 O   0  0  0  0  0  0  0  0  0  0  0  0
    1.7682   -0.5711    0.0000 C   0  0  0  0  0  0  0  0  0  0  0  0
    2.8751    0.4412    0.0000 C   0  0  0  0  0  0  0  0  0  0  0  0
    4.3053   -0.0114    0.0000 C   0  0  0  0  0  0  0  0  0  0  0  0
    5.4122    1.0008    0.0000 C   0  0  0  0  0  0  0  0  0  0  0  0
    5.0891    2.4656    0.0000 C   0  0  0  0  0  0  0  0  0  0  0  0
    3.6590    2.9182    0.0000 C   0  0  0  0  0  0  0  0  0  0  0  0
    2.5520    1.9059    0.0000 C   0  0  0  0  0  0  0  0  0  0  0  0
   -2.2385   -0.8302    0.0000 C   0  0  0  0  0  0  0  0  0  0  0  0
   -2.8591    0.5354    0.0000 C   0  0  0  0  0  0  0  0  0  0  0  0
   -1.9868    1.7557    0.0000 C   0  0  0  0  0  0  0  0  0  0  0  0
   -2.6074    3.1213    0.0000 C   0  0  0  0  0  0  0  0  0  0  0  0
   -4.1003    3.2666    0.0000 C   0  0  0  0  0  0  0  0  0  0  0  0
   -4.9727    2.0463    0.0000 C   0  0  0  0  0  0  0  0  0  0  0  0
   -4.3520    0.6807    0.0000 C   0  0  0  0  0  0  0  0  0  0  0  0
    0.7041   -3.3613    0.0000 C   0  0  0  0  0  0  0  0  0  0  0  0
    0.7156   -4.8612    0.0000 O   0  0  0  0  0  0  0  0  0  0  0  0
    1.9973   -2.6013    0.0000 O   0  0  0  0  0  0  0  0  0  0  0  0
  1  2  1  0
  2  3  1  0
  3  4  1  0
  4  5  1  0
  5  6  2  0
  5  7  1  0
  7  8  1  0
  8  9  2  0
  9 10  1  0
 10 11  2  0
 11 12  1  0
 12 13  2  0
  4 14  1  0
 14 15  1  0
 15 16  2  0
 16 17  1  0
 17 18  2  0
 18 19  1  0
 19 20  2  0
  3 21  1  0
 21 22  1  0
 21 23  2  0
 14  1  1  0
 20 15  1  0
 13  8  1  0
M  END
>  <IC50>  (327) 
1.21

>  <cmpdNO>  (327) 
1061

$$$$

     RDKit          2D

 24 26  0  0  0  0  0  0  0  0999 V2000
   -2.8082   -2.0490    0.0000 S   0  0  0  0  0  0  0  0  0  0  0  0
   -1.8214   -3.1788    0.0000 C   0  0  0  0  0  0  0  0  0  0  0  0
   -0.4421   -2.5894    0.0000 C   0  0  0  0  0  0  0  0  0  0  0  0
   -0.5763   -1.0954    0.0000 N   0  0  0  0  0  0  0  0  0  0  0  0
    0.5534   -0.1087    0.0000 C   0  0  0  0  0  0  0  0  0  0  0  0
    0.2637    1.3631    0.0000 O   0  0  0  0  0  0  0  0  0  0  0  0
    1.9728   -0.5937    0.0000 C   0  0  0  0  0  0  0  0  0  0  0  0
    3.1026    0.3931    0.0000 C   0  0  0  0  0  0  0  0  0  0  0  0
    4.5220   -0.0919    0.0000 C   0  0  0  0  0  0  0  0  0  0  0  0
    5.6518    0.8948    0.0000 C   0  0  0  0  0  0  0  0  0  0  0  0
    5.3621    2.3666    0.0000 C   0  0  0  0  0  0  0  0  0  0  0  0
    3.9426    2.8516    0.0000 C   0  0  0  0  0  0  0  0  0  0  0  0
    2.8129    1.8648    0.0000 C   0  0  0  0  0  0  0  0  0  0  0  0
   -2.0387   -0.7615    0.0000 C   0  0  0  0  0  0  0  0  0  0  0  0
   -2.6280    0.6179    0.0000 C   0  0  0  0  0  0  0  0  0  0  0  0
   -1.7281    1.8180    0.0000 C   0  0  0  0  0  0  0  0  0  0  0  0
   -2.3175    3.1974    0.0000 C   0  0  0  0  0  0  0  0  0  0  0  0
   -3.8067    3.3767    0.0000 C   0  0  0  0  0  0  0  0  0  0  0  0
   -4.7066    2.1766    0.0000 C   0  0  0  0  0  0  0  0  0  0  0  0
   -4.1173    0.7972    0.0000 C   0  0  0  0  0  0  0  0  0  0  0  0
   -5.0172   -0.4029    0.0000 O   0  0  0  0  0  0  0  0  0  0  0  0
    0.8455   -3.3589    0.0000 C   0  0  0  0  0  0  0  0  0  0  0  0
    0.8229   -4.8588    0.0000 O   0  0  0  0  0  0  0  0  0  0  0  0
    2.1557   -2.6286    0.0000 O   0  0  0  0  0  0  0  0  0  0  0  0
  1  2  1  0
  2  3  1  0
  3  4  1  0
  4  5  1  0
  5  6  2  0
  5  7  1  0
  7  8  1  0
  8  9  2  0
  9 10  1  0
 10 11  2  0
 11 12  1  0
 12 13  2  0
  4 14  1  0
 14 15  1  0
 15 16  2  0
 16 17  1  0
 17 18  2  0
 18 19  1  0
 19 20  2  0
 20 21  1  0
  3 22  1  0
 22 23  1  0
 22 24  2  0
 14  1  1  0
 20 15  1  0
 13  8  1  0
M  END
>  <IC50>  (328) 
0.65

>  <cmpdNO>  (328) 
1062

$$$$

     RDKit          2D

 26 28  0  0  0  0  0  0  0  0999 V2000
   -2.4814   -1.8525    0.0000 S   0  0  0  0  0  0  0  0  0  0  0  0
   -1.5512   -3.0292    0.0000 C   0  0  0  0  0  0  0  0  0  0  0  0
   -0.1446   -2.5082    0.0000 C   0  0  0  0  0  0  0  0  0  0  0  0
   -0.2055   -1.0094    0.0000 N   0  0  0  0  0  0  0  0  0  0  0  0
    0.9713   -0.0792    0.0000 C   0  0  0  0  0  0  0  0  0  0  0  0
    0.7540    1.4050    0.0000 O   0  0  0  0  0  0  0  0  0  0  0  0
    2.3652   -0.6332    0.0000 C   0  0  0  0  0  0  0  0  0  0  0  0
    3.5419    0.2970    0.0000 C   0  0  0  0  0  0  0  0  0  0  0  0
    4.9359   -0.2570    0.0000 C   0  0  0  0  0  0  0  0  0  0  0  0
    6.1126    0.6732    0.0000 C   0  0  0  0  0  0  0  0  0  0  0  0
    5.8954    2.1574    0.0000 C   0  0  0  0  0  0  0  0  0  0  0  0
    4.5015    2.7114    0.0000 C   0  0  0  0  0  0  0  0  0  0  0  0
    3.3247    1.7812    0.0000 C   0  0  0  0  0  0  0  0  0  0  0  0
   -1.6497   -0.6042    0.0000 C   0  0  0  0  0  0  0  0  0  0  0  0
   -2.1708    0.8024    0.0000 C   0  0  0  0  0  0  0  0  0  0  0  0
   -1.2131    1.9569    0.0000 C   0  0  0  0  0  0  0  0  0  0  0  0
   -1.7342    3.3635    0.0000 C   0  0  0  0  0  0  0  0  0  0  0  0
   -3.2129    3.6156    0.0000 C   0  0  0  0  0  0  0  0  0  0  0  0
   -4.1705    2.4610    0.0000 C   0  0  0  0  0  0  0  0  0  0  0  0
   -3.6494    1.0545    0.0000 C   0  0  0  0  0  0  0  0  0  0  0  0
   -4.6071   -0.1001    0.0000 C   0  0  0  0  0  0  0  0  0  0  0  0
   -6.0857    0.1520    0.0000 O   0  0  0  0  0  0  0  0  0  0  0  0
   -4.0860   -1.5067    0.0000 O   0  0  0  0  0  0  0  0  0  0  0  0
    1.1037   -3.3399    0.0000 C   0  0  0  0  0  0  0  0  0  0  0  0
    1.0076   -4.8368    0.0000 O   0  0  0  0  0  0  0  0  0  0  0  0
    2.4481   -2.6747    0.0000 O   0  0  0  0  0  0  0  0  0  0  0  0
  1  2  1  0
  2  3  1  0
  3  4  1  0
  4  5  1  0
  5  6  2  0
  5  7  1  0
  7  8  1  0
  8  9  2  0
  9 10  1  0
 10 11  2  0
 11 12  1  0
 12 13  2  0
  4 14  1  0
 14 15  1  0
 15 16  2  0
 16 17  1  0
 17 18  2  0
 18 19  1  0
 19 20  2  0
 20 21  1  0
 21 22  1  0
 21 23  2  0
  3 24  1  0
 24 25  1  0
 24 26  2  0
 14  1  1  0
 20 15  1  0
 13  8  1  0
M  END
>  <IC50>  (329) 
1.92

>  <cmpdNO>  (329) 
1063

$$$$

     RDKit          2D

 25 27  0  0  0  0  0  0  0  0999 V2000
   -1.2843   -3.3971    0.0000 S   0  0  0  0  0  0  0  0  0  0  0  0
    0.0955   -3.9855    0.0000 C   0  0  0  0  0  0  0  0  0  0  0  0
    1.0814   -2.8550    0.0000 C   0  0  0  0  0  0  0  0  0  0  0  0
    0.3109   -1.5680    0.0000 N   0  0  0  0  0  0  0  0  0  0  0  0
    0.8993   -0.1882    0.0000 C   0  0  0  0  0  0  0  0  0  0  0  0
   -0.0015    1.0112    0.0000 O   0  0  0  0  0  0  0  0  0  0  0  0
    2.3884   -0.0078    0.0000 C   0  0  0  0  0  0  0  0  0  0  0  0
    2.9767    1.3721    0.0000 C   0  0  0  0  0  0  0  0  0  0  0  0
    4.4658    1.5525    0.0000 C   0  0  0  0  0  0  0  0  0  0  0  0
    5.0541    2.9323    0.0000 C   0  0  0  0  0  0  0  0  0  0  0  0
    4.1533    4.1317    0.0000 C   0  0  0  0  0  0  0  0  0  0  0  0
    2.6642    3.9513    0.0000 C   0  0  0  0  0  0  0  0  0  0  0  0
    2.0759    2.5715    0.0000 C   0  0  0  0  0  0  0  0  0  0  0  0
   -1.1511   -1.9031    0.0000 C   0  0  0  0  0  0  0  0  0  0  0  0
   -2.2816   -0.9171    0.0000 C   0  0  0  0  0  0  0  0  0  0  0  0
   -1.9930    0.5548    0.0000 C   0  0  0  0  0  0  0  0  0  0  0  0
   -3.1235    1.5407    0.0000 C   0  0  0  0  0  0  0  0  0  0  0  0
   -4.5426    1.0547    0.0000 C   0  0  0  0  0  0  0  0  0  0  0  0
   -4.8312   -0.4173    0.0000 C   0  0  0  0  0  0  0  0  0  0  0  0
   -3.7007   -1.4032    0.0000 C   0  0  0  0  0  0  0  0  0  0  0  0
   -5.6731    2.0406    0.0000 C   0  0  0  0  0  0  0  0  0  0  0  0
   -6.8035    3.0265    0.0000 N   0  0  0  0  0  0  0  0  0  0  0  0
    2.5755   -2.9881    0.0000 C   0  0  0  0  0  0  0  0  0  0  0  0
    3.2073   -4.3486    0.0000 O   0  0  0  0  0  0  0  0  0  0  0  0
    3.4379   -1.7608    0.0000 O   0  0  0  0  0  0  0  0  0  0  0  0
  1  2  1  0
  2  3  1  0
  3  4  1  0
  4  5  1  0
  5  6  2  0
  5  7  1  0
  7  8  1  0
  8  9  2  0
  9 10  1  0
 10 11  2  0
 11 12  1  0
 12 13  2  0
  4 14  1  0
 14 15  1  0
 15 16  2  0
 16 17  1  0
 17 18  2  0
 18 19  1  0
 19 20  2  0
 18 21  1  0
 21 22  3  0
  3 23  1  0
 23 24  1  0
 23 25  2  0
 14  1  1  0
 20 15  1  0
 13  8  1  0
M  END
>  <IC50>  (330) 
2.47

>  <cmpdNO>  (330) 
1064

$$$$

     RDKit          2D

 26 28  0  0  0  0  0  0  0  0999 V2000
   -2.4814   -1.8525    0.0000 S   0  0  0  0  0  0  0  0  0  0  0  0
   -1.5512   -3.0292    0.0000 C   0  0  0  0  0  0  0  0  0  0  0  0
   -0.1446   -2.5082    0.0000 C   0  0  0  0  0  0  0  0  0  0  0  0
   -0.2055   -1.0094    0.0000 N   0  0  0  0  0  0  0  0  0  0  0  0
    0.9713   -0.0792    0.0000 C   0  0  0  0  0  0  0  0  0  0  0  0
    0.7540    1.4050    0.0000 O   0  0  0  0  0  0  0  0  0  0  0  0
    2.3652   -0.6332    0.0000 C   0  0  0  0  0  0  0  0  0  0  0  0
    3.5419    0.2970    0.0000 C   0  0  0  0  0  0  0  0  0  0  0  0
    4.9359   -0.2570    0.0000 C   0  0  0  0  0  0  0  0  0  0  0  0
    6.1126    0.6732    0.0000 C   0  0  0  0  0  0  0  0  0  0  0  0
    5.8954    2.1574    0.0000 C   0  0  0  0  0  0  0  0  0  0  0  0
    4.5015    2.7114    0.0000 C   0  0  0  0  0  0  0  0  0  0  0  0
    3.3247    1.7812    0.0000 C   0  0  0  0  0  0  0  0  0  0  0  0
   -1.6497   -0.6042    0.0000 C   0  0  0  0  0  0  0  0  0  0  0  0
   -2.1708    0.8024    0.0000 C   0  0  0  0  0  0  0  0  0  0  0  0
   -1.2131    1.9569    0.0000 C   0  0  0  0  0  0  0  0  0  0  0  0
   -1.7342    3.3635    0.0000 C   0  0  0  0  0  0  0  0  0  0  0  0
   -3.2129    3.6156    0.0000 C   0  0  0  0  0  0  0  0  0  0  0  0
   -4.1705    2.4610    0.0000 C   0  0  0  0  0  0  0  0  0  0  0  0
   -3.6494    1.0545    0.0000 C   0  0  0  0  0  0  0  0  0  0  0  0
   -4.6071   -0.1001    0.0000 N   0  0  0  0  0  0  0  0  0  0  0  0
   -4.0860   -1.5067    0.0000 O   0  0  0  0  0  0  0  0  0  0  0  0
   -6.0857    0.1520    0.0000 O   0  0  0  0  0  0  0  0  0  0  0  0
    1.1037   -3.3399    0.0000 C   0  0  0  0  0  0  0  0  0  0  0  0
    1.0076   -4.8368    0.0000 O   0  0  0  0  0  0  0  0  0  0  0  0
    2.4481   -2.6747    0.0000 O   0  0  0  0  0  0  0  0  0  0  0  0
  1  2  1  0
  2  3  1  0
  3  4  1  0
  4  5  1  0
  5  6  2  0
  5  7  1  0
  7  8  1  0
  8  9  2  0
  9 10  1  0
 10 11  2  0
 11 12  1  0
 12 13  2  0
  4 14  1  0
 14 15  1  0
 15 16  2  0
 16 17  1  0
 17 18  2  0
 18 19  1  0
 19 20  2  0
 20 21  1  0
 21 22  2  0
 21 23  1  0
  3 24  1  0
 24 25  1  0
 24 26  2  0
 14  1  1  0
 20 15  1  0
 13  8  1  0
M  CHG  2  21   1  23  -1
M  END
>  <IC50>  (331) 
1.87

>  <cmpdNO>  (331) 
1065

$$$$

     RDKit          2D

 26 28  0  0  0  0  0  0  0  0999 V2000
   -1.8200   -2.6893    0.0000 S   0  0  0  0  0  0  0  0  0  0  0  0
   -0.6321   -3.6052    0.0000 C   0  0  0  0  0  0  0  0  0  0  0  0
    0.6061   -2.7585    0.0000 C   0  0  0  0  0  0  0  0  0  0  0  0
    0.1834   -1.3193    0.0000 N   0  0  0  0  0  0  0  0  0  0  0  0
    1.0993   -0.1313    0.0000 C   0  0  0  0  0  0  0  0  0  0  0  0
    0.5285    1.2558    0.0000 O   0  0  0  0  0  0  0  0  0  0  0  0
    2.5860   -0.3306    0.0000 C   0  0  0  0  0  0  0  0  0  0  0  0
    3.5019    0.8573    0.0000 C   0  0  0  0  0  0  0  0  0  0  0  0
    4.9887    0.6581    0.0000 C   0  0  0  0  0  0  0  0  0  0  0  0
    5.9046    1.8460    0.0000 C   0  0  0  0  0  0  0  0  0  0  0  0
    5.3338    3.2331    0.0000 C   0  0  0  0  0  0  0  0  0  0  0  0
    3.8471    3.4324    0.0000 C   0  0  0  0  0  0  0  0  0  0  0  0
    2.9311    2.2445    0.0000 C   0  0  0  0  0  0  0  0  0  0  0  0
   -1.3160   -1.2765    0.0000 C   0  0  0  0  0  0  0  0  0  0  0  0
   -2.1627   -0.0383    0.0000 C   0  0  0  0  0  0  0  0  0  0  0  0
   -1.5138    1.3140    0.0000 C   0  0  0  0  0  0  0  0  0  0  0  0
   -2.3605    2.5522    0.0000 C   0  0  0  0  0  0  0  0  0  0  0  0
   -3.8562    2.4380    0.0000 C   0  0  0  0  0  0  0  0  0  0  0  0
   -4.5051    1.0856    0.0000 C   0  0  0  0  0  0  0  0  0  0  0  0
   -6.0007    0.9714    0.0000 O   0  0  0  0  0  0  0  0  0  0  0  0
   -6.8475    2.2096    0.0000 C   0  0  0  0  0  0  0  0  0  0  0  0
   -3.6583   -0.1525    0.0000 C   0  0  0  0  0  0  0  0  0  0  0  0
   -4.3073   -1.5049    0.0000 O   0  0  0  0  0  0  0  0  0  0  0  0
    2.0189   -3.2625    0.0000 C   0  0  0  0  0  0  0  0  0  0  0  0
    2.2888   -4.7380    0.0000 O   0  0  0  0  0  0  0  0  0  0  0  0
    3.1618   -2.2909    0.0000 O   0  0  0  0  0  0  0  0  0  0  0  0
  1  2  1  0
  2  3  1  0
  3  4  1  0
  4  5  1  0
  5  6  2  0
  5  7  1  0
  7  8  1  0
  8  9  2  0
  9 10  1  0
 10 11  2  0
 11 12  1  0
 12 13  2  0
  4 14  1  0
 14 15  1  0
 15 16  2  0
 16 17  1  0
 17 18  2  0
 18 19  1  0
 19 20  1  0
 20 21  1  0
 19 22  2  0
 22 23  1  0
  3 24  1  0
 24 25  1  0
 24 26  2  0
 14  1  1  0
 22 15  1  0
 13  8  1  0
M  END
>  <IC50>  (332) 
1.62

>  <cmpdNO>  (332) 
1066

$$$$

     RDKit          2D

 22 24  0  0  0  0  0  0  0  0999 V2000
   -3.3952   -1.5661    0.0000 S   0  0  0  0  0  0  0  0  0  0  0  0
   -2.5385   -2.7975    0.0000 C   0  0  0  0  0  0  0  0  0  0  0  0
   -1.1027   -2.3633    0.0000 C   0  0  0  0  0  0  0  0  0  0  0  0
   -1.0720   -0.8636    0.0000 N   0  0  0  0  0  0  0  0  0  0  0  0
    0.1593   -0.0069    0.0000 C   0  0  0  0  0  0  0  0  0  0  0  0
    0.0331    1.4877    0.0000 O   0  0  0  0  0  0  0  0  0  0  0  0
    1.5169   -0.6450    0.0000 C   0  0  0  0  0  0  0  0  0  0  0  0
    2.7482    0.2116    0.0000 C   0  0  0  0  0  0  0  0  0  0  0  0
    4.1057   -0.4264    0.0000 C   0  0  0  0  0  0  0  0  0  0  0  0
    5.3371    0.4302    0.0000 C   0  0  0  0  0  0  0  0  0  0  0  0
    5.2109    1.9249    0.0000 C   0  0  0  0  0  0  0  0  0  0  0  0
    3.8533    2.5629    0.0000 C   0  0  0  0  0  0  0  0  0  0  0  0
    2.6220    1.7063    0.0000 C   0  0  0  0  0  0  0  0  0  0  0  0
   -2.4888   -0.3709    0.0000 C   0  0  0  0  0  0  0  0  0  0  0  0
   -2.9230    1.0649    0.0000 C   0  0  0  0  0  0  0  0  0  0  0  0
   -4.3398    1.5575    0.0000 O   0  0  0  0  0  0  0  0  0  0  0  0
   -4.3091    3.0572    0.0000 C   0  0  0  0  0  0  0  0  0  0  0  0
   -2.8733    3.4914    0.0000 C   0  0  0  0  0  0  0  0  0  0  0  0
   -2.0166    2.2601    0.0000 C   0  0  0  0  0  0  0  0  0  0  0  0
    0.0925   -3.2696    0.0000 C   0  0  0  0  0  0  0  0  0  0  0  0
   -0.0949   -4.7579    0.0000 O   0  0  0  0  0  0  0  0  0  0  0  0
    1.4750   -2.6877    0.0000 O   0  0  0  0  0  0  0  0  0  0  0  0
  1  2  1  0
  2  3  1  0
  3  4  1  0
  4  5  1  0
  5  6  2  0
  5  7  1  0
  7  8  1  0
  8  9  2  0
  9 10  1  0
 10 11  2  0
 11 12  1  0
 12 13  2  0
  4 14  1  0
 14 15  1  0
 15 16  1  0
 16 17  1  0
 17 18  2  0
 18 19  1  0
  3 20  1  0
 20 21  1  0
 20 22  2  0
 14  1  1  0
 19 15  2  0
 13  8  1  0
M  END
>  <IC50>  (333) 
2.89

>  <cmpdNO>  (333) 
1067

$$$$

     RDKit          2D

 18 19  0  0  0  0  0  0  0  0999 V2000
    0.0602    2.4660    0.0000 S   0  0  0  0  0  0  0  0  0  0  0  0
   -1.4392    2.5112    0.0000 C   0  0  0  0  0  0  0  0  0  0  0  0
   -1.9454    1.0992    0.0000 C   0  0  0  0  0  0  0  0  0  0  0  0
   -0.7590    0.1814    0.0000 N   0  0  0  0  0  0  0  0  0  0  0  0
   -0.8042   -1.3180    0.0000 C   0  0  0  0  0  0  0  0  0  0  0  0
    0.4717   -2.1067    0.0000 O   0  0  0  0  0  0  0  0  0  0  0  0
   -2.1252   -2.0285    0.0000 C   0  0  0  0  0  0  0  0  0  0  0  0
   -2.1704   -3.5278    0.0000 N   0  0  0  0  0  0  0  0  0  0  0  0
    0.4805    1.0261    0.0000 C   0  0  0  0  0  0  0  0  0  0  0  0
    1.8925    0.5198    0.0000 C   0  0  0  0  0  0  0  0  0  0  0  0
    2.1600   -0.9561    0.0000 C   0  0  0  0  0  0  0  0  0  0  0  0
    3.5720   -1.4624    0.0000 C   0  0  0  0  0  0  0  0  0  0  0  0
    4.7165   -0.4927    0.0000 C   0  0  0  0  0  0  0  0  0  0  0  0
    4.4489    0.9832    0.0000 C   0  0  0  0  0  0  0  0  0  0  0  0
    3.0369    1.4895    0.0000 C   0  0  0  0  0  0  0  0  0  0  0  0
   -3.3853    0.6788    0.0000 C   0  0  0  0  0  0  0  0  0  0  0  0
   -4.4693    1.7156    0.0000 O   0  0  0  0  0  0  0  0  0  0  0  0
   -3.7412   -0.7783    0.0000 O   0  0  0  0  0  0  0  0  0  0  0  0
  1  2  1  0
  2  3  1  0
  3  4  1  0
  4  5  1  0
  5  6  2  0
  5  7  1  0
  7  8  1  0
  4  9  1  0
  9 10  1  0
 10 11  2  0
 11 12  1  0
 12 13  2  0
 13 14  1  0
 14 15  2  0
  3 16  1  0
 16 17  1  0
 16 18  2  0
  9  1  1  0
 15 10  1  0
M  END
>  <IC50>  (334) 
0.53

>  <cmpdNO>  (334) 
1068

$$$$

     RDKit          2D

 19 20  0  0  0  0  0  0  0  0999 V2000
    0.1231    2.3082    0.0000 S   0  0  0  0  0  0  0  0  0  0  0  0
   -1.3661    2.4884    0.0000 C   0  0  0  0  0  0  0  0  0  0  0  0
   -1.9976    1.1278    0.0000 C   0  0  0  0  0  0  0  0  0  0  0  0
   -0.8988    0.1068    0.0000 N   0  0  0  0  0  0  0  0  0  0  0  0
   -1.0790   -1.3824    0.0000 C   0  0  0  0  0  0  0  0  0  0  0  0
    0.1205   -2.2830    0.0000 O   0  0  0  0  0  0  0  0  0  0  0  0
   -2.4587   -1.9709    0.0000 C   0  0  0  0  0  0  0  0  0  0  0  0
   -2.6389   -3.4600    0.0000 N   0  0  0  0  0  0  0  0  0  0  0  0
    0.4119    0.8363    0.0000 C   0  0  0  0  0  0  0  0  0  0  0  0
    1.7724    0.2047    0.0000 C   0  0  0  0  0  0  0  0  0  0  0  0
    1.9058   -1.2893    0.0000 C   0  0  0  0  0  0  0  0  0  0  0  0
    3.2663   -1.9209    0.0000 C   0  0  0  0  0  0  0  0  0  0  0  0
    4.4936   -1.0584    0.0000 C   0  0  0  0  0  0  0  0  0  0  0  0
    4.3602    0.4357    0.0000 C   0  0  0  0  0  0  0  0  0  0  0  0
    2.9996    1.0673    0.0000 C   0  0  0  0  0  0  0  0  0  0  0  0
    2.8663    2.5613    0.0000 O   0  0  0  0  0  0  0  0  0  0  0  0
   -3.4696    0.8390    0.0000 C   0  0  0  0  0  0  0  0  0  0  0  0
   -4.4556    1.9694    0.0000 O   0  0  0  0  0  0  0  0  0  0  0  0
   -3.9554   -0.5801    0.0000 O   0  0  0  0  0  0  0  0  0  0  0  0
  1  2  1  0
  2  3  1  0
  3  4  1  0
  4  5  1  0
  5  6  2  0
  5  7  1  0
  7  8  1  0
  4  9  1  0
  9 10  1  0
 10 11  2  0
 11 12  1  0
 12 13  2  0
 13 14  1  0
 14 15  2  0
 15 16  1  0
  3 17  1  0
 17 18  1  0
 17 19  2  0
  9  1  1  0
 15 10  1  0
M  END
>  <IC50>  (335) 
0.21

>  <cmpdNO>  (335) 
1069

$$$$

     RDKit          2D

 21 22  0  0  0  0  0  0  0  0999 V2000
    0.2399    1.9839    0.0000 S   0  0  0  0  0  0  0  0  0  0  0  0
   -1.1874    2.4452    0.0000 C   0  0  0  0  0  0  0  0  0  0  0  0
   -2.0673    1.2304    0.0000 C   0  0  0  0  0  0  0  0  0  0  0  0
   -1.1838    0.0182    0.0000 N   0  0  0  0  0  0  0  0  0  0  0  0
   -1.6451   -1.4091    0.0000 C   0  0  0  0  0  0  0  0  0  0  0  0
   -0.6397   -2.5223    0.0000 O   0  0  0  0  0  0  0  0  0  0  0  0
   -3.1119   -1.7232    0.0000 C   0  0  0  0  0  0  0  0  0  0  0  0
   -3.5732   -3.1505    0.0000 N   0  0  0  0  0  0  0  0  0  0  0  0
    0.2421    0.4839    0.0000 C   0  0  0  0  0  0  0  0  0  0  0  0
    1.4570   -0.3960    0.0000 C   0  0  0  0  0  0  0  0  0  0  0  0
    1.3024   -1.8880    0.0000 C   0  0  0  0  0  0  0  0  0  0  0  0
    2.5173   -2.7678    0.0000 C   0  0  0  0  0  0  0  0  0  0  0  0
    3.8867   -2.1557    0.0000 C   0  0  0  0  0  0  0  0  0  0  0  0
    4.0412   -0.6637    0.0000 C   0  0  0  0  0  0  0  0  0  0  0  0
    2.8264    0.2162    0.0000 C   0  0  0  0  0  0  0  0  0  0  0  0
    2.9809    1.7082    0.0000 C   0  0  0  0  0  0  0  0  0  0  0  0
    4.3503    2.3204    0.0000 O   0  0  0  0  0  0  0  0  0  0  0  0
    1.7661    2.5880    0.0000 O   0  0  0  0  0  0  0  0  0  0  0  0
   -3.5673    1.2281    0.0000 C   0  0  0  0  0  0  0  0  0  0  0  0
   -4.3192    2.5260    0.0000 O   0  0  0  0  0  0  0  0  0  0  0  0
   -4.3153   -0.0721    0.0000 O   0  0  0  0  0  0  0  0  0  0  0  0
  1  2  1  0
  2  3  1  0
  3  4  1  0
  4  5  1  0
  5  6  2  0
  5  7  1  0
  7  8  1  0
  4  9  1  0
  9 10  1  0
 10 11  2  0
 11 12  1  0
 12 13  2  0
 13 14  1  0
 14 15  2  0
 15 16  1  0
 16 17  1  0
 16 18  2  0
  3 19  1  0
 19 20  1  0
 19 21  2  0
  9  1  1  0
 15 10  1  0
M  END
>  <IC50>  (336) 
0.28

>  <cmpdNO>  (336) 
1070

$$$$

     RDKit          2D

 20 21  0  0  0  0  0  0  0  0999 V2000
   -0.8600    2.5225    0.0000 S   0  0  0  0  0  0  0  0  0  0  0  0
   -2.3571    2.4290    0.0000 C   0  0  0  0  0  0  0  0  0  0  0  0
   -2.7307    0.9763    0.0000 C   0  0  0  0  0  0  0  0  0  0  0  0
   -1.4646    0.1720    0.0000 N   0  0  0  0  0  0  0  0  0  0  0  0
   -1.3711   -1.3251    0.0000 C   0  0  0  0  0  0  0  0  0  0  0  0
   -0.0278   -1.9926    0.0000 O   0  0  0  0  0  0  0  0  0  0  0  0
   -2.6208   -2.1546    0.0000 C   0  0  0  0  0  0  0  0  0  0  0  0
   -2.5273   -3.6517    0.0000 N   0  0  0  0  0  0  0  0  0  0  0  0
   -0.3084    1.1276    0.0000 C   0  0  0  0  0  0  0  0  0  0  0  0
    1.1443    0.7540    0.0000 C   0  0  0  0  0  0  0  0  0  0  0  0
    1.5471   -0.6909    0.0000 C   0  0  0  0  0  0  0  0  0  0  0  0
    2.9998   -1.0646    0.0000 C   0  0  0  0  0  0  0  0  0  0  0  0
    4.0497    0.0066    0.0000 C   0  0  0  0  0  0  0  0  0  0  0  0
    3.6470    1.4516    0.0000 C   0  0  0  0  0  0  0  0  0  0  0  0
    2.1942    1.8252    0.0000 C   0  0  0  0  0  0  0  0  0  0  0  0
    5.5024   -0.3670    0.0000 C   0  0  0  0  0  0  0  0  0  0  0  0
    6.9551   -0.7407    0.0000 N   0  0  0  0  0  0  0  0  0  0  0  0
   -4.1257    0.4247    0.0000 C   0  0  0  0  0  0  0  0  0  0  0  0
   -5.3008    1.3569    0.0000 O   0  0  0  0  0  0  0  0  0  0  0  0
   -4.3454   -1.0591    0.0000 O   0  0  0  0  0  0  0  0  0  0  0  0
  1  2  1  0
  2  3  1  0
  3  4  1  0
  4  5  1  0
  5  6  2  0
  5  7  1  0
  7  8  1  0
  4  9  1  0
  9 10  1  0
 10 11  2  0
 11 12  1  0
 12 13  2  0
 13 14  1  0
 14 15  2  0
 13 16  1  0
 16 17  3  0
  3 18  1  0
 18 19  1  0
 18 20  2  0
  9  1  1  0
 15 10  1  0
M  END
>  <IC50>  (337) 
0.81

>  <cmpdNO>  (337) 
1071

$$$$

     RDKit          2D

 21 22  0  0  0  0  0  0  0  0999 V2000
    0.2399    1.9839    0.0000 S   0  0  0  0  0  0  0  0  0  0  0  0
   -1.1874    2.4452    0.0000 C   0  0  0  0  0  0  0  0  0  0  0  0
   -2.0673    1.2304    0.0000 C   0  0  0  0  0  0  0  0  0  0  0  0
   -1.1838    0.0182    0.0000 N   0  0  0  0  0  0  0  0  0  0  0  0
   -1.6451   -1.4091    0.0000 C   0  0  0  0  0  0  0  0  0  0  0  0
   -0.6397   -2.5223    0.0000 O   0  0  0  0  0  0  0  0  0  0  0  0
   -3.1119   -1.7232    0.0000 C   0  0  0  0  0  0  0  0  0  0  0  0
   -3.5732   -3.1505    0.0000 N   0  0  0  0  0  0  0  0  0  0  0  0
    0.2421    0.4839    0.0000 C   0  0  0  0  0  0  0  0  0  0  0  0
    1.4570   -0.3960    0.0000 C   0  0  0  0  0  0  0  0  0  0  0  0
    1.3024   -1.8880    0.0000 C   0  0  0  0  0  0  0  0  0  0  0  0
    2.5173   -2.7678    0.0000 C   0  0  0  0  0  0  0  0  0  0  0  0
    3.8867   -2.1557    0.0000 C   0  0  0  0  0  0  0  0  0  0  0  0
    4.0412   -0.6637    0.0000 C   0  0  0  0  0  0  0  0  0  0  0  0
    2.8264    0.2162    0.0000 C   0  0  0  0  0  0  0  0  0  0  0  0
    2.9809    1.7082    0.0000 N   0  0  0  0  0  0  0  0  0  0  0  0
    1.7661    2.5880    0.0000 O   0  0  0  0  0  0  0  0  0  0  0  0
    4.3503    2.3204    0.0000 O   0  0  0  0  0  0  0  0  0  0  0  0
   -3.5673    1.2281    0.0000 C   0  0  0  0  0  0  0  0  0  0  0  0
   -4.3192    2.5260    0.0000 O   0  0  0  0  0  0  0  0  0  0  0  0
   -4.3153   -0.0721    0.0000 O   0  0  0  0  0  0  0  0  0  0  0  0
  1  2  1  0
  2  3  1  0
  3  4  1  0
  4  5  1  0
  5  6  2  0
  5  7  1  0
  7  8  1  0
  4  9  1  0
  9 10  1  0
 10 11  2  0
 11 12  1  0
 12 13  2  0
 13 14  1  0
 14 15  2  0
 15 16  1  0
 16 17  2  0
 16 18  1  0
  3 19  1  0
 19 20  1  0
 19 21  2  0
  9  1  1  0
 15 10  1  0
M  CHG  2  16   1  18  -1
M  END
>  <IC50>  (338) 
1.02

>  <cmpdNO>  (338) 
1072

$$$$

     RDKit          2D

 21 22  0  0  0  0  0  0  0  0999 V2000
   -0.3224    2.2417    0.0000 S   0  0  0  0  0  0  0  0  0  0  0  0
   -1.7959    2.5226    0.0000 C   0  0  0  0  0  0  0  0  0  0  0  0
   -2.5183    1.2080    0.0000 C   0  0  0  0  0  0  0  0  0  0  0  0
   -1.4914    0.1147    0.0000 N   0  0  0  0  0  0  0  0  0  0  0  0
   -1.7723   -1.3587    0.0000 C   0  0  0  0  0  0  0  0  0  0  0  0
   -0.6366   -2.3387    0.0000 O   0  0  0  0  0  0  0  0  0  0  0  0
   -3.1888   -1.8522    0.0000 C   0  0  0  0  0  0  0  0  0  0  0  0
   -3.4696   -3.3257    0.0000 N   0  0  0  0  0  0  0  0  0  0  0  0
   -0.1342    0.7536    0.0000 C   0  0  0  0  0  0  0  0  0  0  0  0
    1.1803    0.0311    0.0000 C   0  0  0  0  0  0  0  0  0  0  0  0
    1.2119   -1.4686    0.0000 C   0  0  0  0  0  0  0  0  0  0  0  0
    2.5265   -2.1910    0.0000 C   0  0  0  0  0  0  0  0  0  0  0  0
    3.8094   -1.4138    0.0000 C   0  0  0  0  0  0  0  0  0  0  0  0
    3.7778    0.0858    0.0000 C   0  0  0  0  0  0  0  0  0  0  0  0
    5.0608    0.8630    0.0000 O   0  0  0  0  0  0  0  0  0  0  0  0
    6.3753    0.1406    0.0000 C   0  0  0  0  0  0  0  0  0  0  0  0
    2.4633    0.8083    0.0000 C   0  0  0  0  0  0  0  0  0  0  0  0
    2.4317    2.3080    0.0000 O   0  0  0  0  0  0  0  0  0  0  0  0
   -4.0065    1.0198    0.0000 C   0  0  0  0  0  0  0  0  0  0  0  0
   -4.9135    2.2145    0.0000 O   0  0  0  0  0  0  0  0  0  0  0  0
   -4.5876   -0.3630    0.0000 O   0  0  0  0  0  0  0  0  0  0  0  0
  1  2  1  0
  2  3  1  0
  3  4  1  0
  4  5  1  0
  5  6  2  0
  5  7  1  0
  7  8  1  0
  4  9  1  0
  9 10  1  0
 10 11  2  0
 11 12  1  0
 12 13  2  0
 13 14  1  0
 14 15  1  0
 15 16  1  0
 14 17  2  0
 17 18  1  0
  3 19  1  0
 19 20  1  0
 19 21  2  0
  9  1  1  0
 17 10  1  0
M  END
>  <IC50>  (339) 
0.14

>  <cmpdNO>  (339) 
1073

$$$$

     RDKit          2D

 17 18  0  0  0  0  0  0  0  0999 V2000
   -0.3601   -2.4385    0.0000 S   0  0  0  0  0  0  0  0  0  0  0  0
    1.1382   -2.5104    0.0000 C   0  0  0  0  0  0  0  0  0  0  0  0
    1.6695   -1.1077    0.0000 C   0  0  0  0  0  0  0  0  0  0  0  0
    0.4997   -0.1688    0.0000 N   0  0  0  0  0  0  0  0  0  0  0  0
    0.5716    1.3294    0.0000 C   0  0  0  0  0  0  0  0  0  0  0  0
   -0.6900    2.1408    0.0000 O   0  0  0  0  0  0  0  0  0  0  0  0
    1.9051    2.0163    0.0000 C   0  0  0  0  0  0  0  0  0  0  0  0
    1.9770    3.5146    0.0000 N   0  0  0  0  0  0  0  0  0  0  0  0
   -0.7547   -0.9913    0.0000 C   0  0  0  0  0  0  0  0  0  0  0  0
   -2.1575   -0.4600    0.0000 C   0  0  0  0  0  0  0  0  0  0  0  0
   -3.4118   -1.2824    0.0000 O   0  0  0  0  0  0  0  0  0  0  0  0
   -4.5817   -0.3436    0.0000 C   0  0  0  0  0  0  0  0  0  0  0  0
   -4.0503    1.0591    0.0000 C   0  0  0  0  0  0  0  0  0  0  0  0
   -2.5521    0.9872    0.0000 C   0  0  0  0  0  0  0  0  0  0  0  0
    3.1167   -0.7131    0.0000 C   0  0  0  0  0  0  0  0  0  0  0  0
    4.1820   -1.7691    0.0000 O   0  0  0  0  0  0  0  0  0  0  0  0
    3.4985    0.7375    0.0000 O   0  0  0  0  0  0  0  0  0  0  0  0
  1  2  1  0
  2  3  1  0
  3  4  1  0
  4  5  1  0
  5  6  2  0
  5  7  1  0
  7  8  1  0
  4  9  1  0
  9 10  1  0
 10 11  1  0
 11 12  1  0
 12 13  2  0
 13 14  1  0
  3 15  1  0
 15 16  1  0
 15 17  2  0
  9  1  1  0
 14 10  2  0
M  END
>  <IC50>  (340) 
0.98

>  <cmpdNO>  (340) 
1074

$$$$

     RDKit          2D

 43 49  0  0  0  0  0  0  0  0999 V2000
   -2.6001   -0.6348    0.0000 O   0  0  0  0  0  0  0  0  0  0  0  0
   -3.2959    0.6940    0.0000 C   0  0  0  0  0  0  0  0  0  0  0  0
   -2.4931    1.9611    0.0000 C   0  0  0  0  0  0  0  0  0  0  0  0
   -0.9944    1.8993    0.0000 O   0  0  0  0  0  0  0  0  0  0  0  0
   -0.2985    0.5705    0.0000 C   0  0  0  0  0  0  0  0  0  0  0  0
   -1.1013   -0.6965    0.0000 C   0  0  0  0  0  0  0  0  0  0  0  0
   -0.4055   -2.0254    0.0000 C   0  0  0  0  0  0  0  0  0  0  0  0
   -1.2083   -3.2924    0.0000 O   0  0  0  0  0  0  0  0  0  0  0  0
    1.0933   -2.0871    0.0000 C   0  0  0  0  0  0  0  0  0  0  0  0
    1.8961   -0.8201    0.0000 C   0  0  0  0  0  0  0  0  0  0  0  0
    3.3749   -0.5689    0.0000 O   0  0  0  0  0  0  0  0  0  0  0  0
    3.5930    0.9152    0.0000 C   0  0  0  0  0  0  0  0  0  0  0  0
    2.2490    1.5812    0.0000 C   0  0  0  0  0  0  0  0  0  0  0  0
    1.2002    0.5087    0.0000 C   0  0  0  0  0  0  0  0  0  0  0  0
    2.1537    3.0782    0.0000 C   0  0  0  0  0  0  0  0  0  0  0  0
    0.8097    3.7442    0.0000 O   0  0  0  0  0  0  0  0  0  0  0  0
    3.4025    3.9091    0.0000 C   0  0  0  0  0  0  0  0  0  0  0  0
    4.7466    3.2431    0.0000 C   0  0  0  0  0  0  0  0  0  0  0  0
    5.9954    4.0741    0.0000 O   0  0  0  0  0  0  0  0  0  0  0  0
    4.8418    1.7461    0.0000 C   0  0  0  0  0  0  0  0  0  0  0  0
    6.1858    1.0801    0.0000 O   0  0  0  0  0  0  0  0  0  0  0  0
    6.2811   -0.4169    0.0000 C   0  0  0  0  0  0  0  0  0  0  0  0
    5.0323   -1.2478    0.0000 C   0  0  0  0  0  0  0  0  0  0  0  0
    5.1275   -2.7448    0.0000 C   0  0  0  0  0  0  0  0  0  0  0  0
    3.8787   -3.5757    0.0000 O   0  0  0  0  0  0  0  0  0  0  0  0
    6.4715   -3.4108    0.0000 C   0  0  0  0  0  0  0  0  0  0  0  0
    7.7203   -2.5798    0.0000 C   0  0  0  0  0  0  0  0  0  0  0  0
    9.0644   -3.2459    0.0000 O   0  0  0  0  0  0  0  0  0  0  0  0
    7.6251   -1.0829    0.0000 C   0  0  0  0  0  0  0  0  0  0  0  0
   -3.1890    3.2899    0.0000 C   0  0  0  0  0  0  0  0  0  0  0  0
   -2.3861    4.5570    0.0000 O   0  0  0  0  0  0  0  0  0  0  0  0
   -4.6877    3.3517    0.0000 C   0  0  0  0  0  0  0  0  0  0  0  0
   -5.4905    2.0846    0.0000 C   0  0  0  0  0  0  0  0  0  0  0  0
   -6.9893    2.1464    0.0000 O   0  0  0  0  0  0  0  0  0  0  0  0
   -4.7947    0.7558    0.0000 C   0  0  0  0  0  0  0  0  0  0  0  0
   -5.5975   -0.5113    0.0000 C   0  0  0  0  0  0  0  0  0  0  0  0
   -7.0963   -0.4495    0.0000 C   0  0  0  0  0  0  0  0  0  0  0  0
   -7.8991   -1.7165    0.0000 C   0  0  0  0  0  0  0  0  0  0  0  0
   -9.3978   -1.6548    0.0000 O   0  0  0  0  0  0  0  0  0  0  0  0
   -7.2032   -3.0454    0.0000 C   0  0  0  0  0  0  0  0  0  0  0  0
   -5.7045   -3.1071    0.0000 C   0  0  0  0  0  0  0  0  0  0  0  0
   -5.0086   -4.4359    0.0000 O   0  0  0  0  0  0  0  0  0  0  0  0
   -4.9017   -1.8401    0.0000 C   0  0  0  0  0  0  0  0  0  0  0  0
  1  2  1  0
  2  3  2  0
  3  4  1  0
  4  5  1  0
  5  6  2  0
  6  7  1  0
  7  8  1  0
  7  9  2  0
  9 10  1  0
 10 11  1  0
 11 12  1  0
 12 13  2  0
 13 14  1  0
 13 15  1  0
 15 16  1  0
 15 17  2  0
 17 18  1  0
 18 19  1  0
 18 20  2  0
 20 21  1  0
 21 22  1  0
 22 23  2  0
 23 24  1  0
 24 25  1  0
 24 26  2  0
 26 27  1  0
 27 28  1  0
 27 29  2  0
  3 30  1  0
 30 31  1  0
 30 32  2  0
 32 33  1  0
 33 34  1  0
 33 35  2  0
 35 36  1  0
 36 37  2  0
 37 38  1  0
 38 39  1  0
 38 40  2  0
 40 41  1  0
 41 42  1  0
 41 43  2  0
  6  1  1  0
 14 10  2  0
 29 22  1  0
 43 36  1  0
 35  2  1  0
 14  5  1  0
 20 12  1  0
M  END
>  <IC50>  (341) 
14.7

>  <cmpdNO>  (341) 
1075

$$$$

     RDKit          2D

 16 16  0  0  0  0  0  0  0  0999 V2000
    0.8522   -2.1590    0.0000 O   0  0  0  0  0  0  0  0  0  0  0  0
   -0.1097   -1.0081    0.0000 C   0  0  0  0  0  0  0  0  0  0  0  0
   -1.5875   -1.2657    0.0000 C   0  0  0  0  0  0  0  0  0  0  0  0
   -2.5494   -0.1148    0.0000 C   0  0  0  0  0  0  0  0  0  0  0  0
   -2.0337    1.2938    0.0000 C   0  0  0  0  0  0  0  0  0  0  0  0
   -0.5559    1.5514    0.0000 C   0  0  0  0  0  0  0  0  0  0  0  0
   -0.0402    2.9599    0.0000 N   0  0  0  0  0  0  0  0  0  0  0  0
    0.4060    0.4004    0.0000 C   0  0  0  0  0  0  0  0  0  0  0  0
    1.8837    0.6581    0.0000 N   0  0  0  0  0  0  0  0  0  0  0  0
    2.8457   -0.4929    0.0000 O   0  0  0  0  0  0  0  0  0  0  0  0
    4.3234   -0.2353    0.0000 C   0  0  0  0  0  0  0  0  0  0  0  0
    4.8391    1.1733    0.0000 O   0  0  0  0  0  0  0  0  0  0  0  0
    5.2853   -1.3862    0.0000 C   0  0  0  0  0  0  0  0  0  0  0  0
   -4.0271   -0.3724    0.0000 C   0  0  0  0  0  0  0  0  0  0  0  0
   -4.9891    0.7785    0.0000 O   0  0  0  0  0  0  0  0  0  0  0  0
   -4.5429   -1.7809    0.0000 O   0  0  0  0  0  0  0  0  0  0  0  0
  1  2  1  0
  2  3  1  0
  3  4  2  0
  4  5  1  0
  5  6  1  0
  6  7  1  0
  6  8  1  0
  8  9  1  0
  9 10  1  0
 10 11  1  0
 11 12  2  0
 11 13  1  0
  4 14  1  0
 14 15  1  0
 14 16  2  0
  8  2  1  0
M  END
>  <IC50>  (342) 
6.3

>  <cmpdNO>  (342) 
1076

$$$$

     RDKit          2D

 17 17  0  0  0  0  0  0  0  0999 V2000
    0.8511   -1.9411    0.0000 O   0  0  0  0  0  0  0  0  0  0  0  0
    0.3489   -3.3545    0.0000 C   0  0  0  0  0  0  0  0  0  0  0  0
   -0.1219   -0.7995    0.0000 C   0  0  0  0  0  0  0  0  0  0  0  0
   -1.5970   -1.0712    0.0000 C   0  0  0  0  0  0  0  0  0  0  0  0
   -2.5700    0.0704    0.0000 C   0  0  0  0  0  0  0  0  0  0  0  0
   -2.0678    1.4838    0.0000 C   0  0  0  0  0  0  0  0  0  0  0  0
   -0.5926    1.7556    0.0000 C   0  0  0  0  0  0  0  0  0  0  0  0
   -0.0904    3.1690    0.0000 N   0  0  0  0  0  0  0  0  0  0  0  0
    0.3803    0.6140    0.0000 C   0  0  0  0  0  0  0  0  0  0  0  0
    1.8555    0.8858    0.0000 N   0  0  0  0  0  0  0  0  0  0  0  0
    2.8285   -0.2559    0.0000 O   0  0  0  0  0  0  0  0  0  0  0  0
    4.3036    0.0159    0.0000 C   0  0  0  0  0  0  0  0  0  0  0  0
    4.8059    1.4293    0.0000 O   0  0  0  0  0  0  0  0  0  0  0  0
    5.2766   -1.1257    0.0000 C   0  0  0  0  0  0  0  0  0  0  0  0
   -4.0452   -0.2014    0.0000 C   0  0  0  0  0  0  0  0  0  0  0  0
   -5.0181    0.9403    0.0000 O   0  0  0  0  0  0  0  0  0  0  0  0
   -4.5474   -1.6148    0.0000 O   0  0  0  0  0  0  0  0  0  0  0  0
  1  2  1  0
  1  3  1  0
  3  4  1  0
  4  5  2  0
  5  6  1  0
  6  7  1  0
  7  8  1  0
  7  9  1  0
  9 10  1  0
 10 11  1  0
 11 12  1  0
 12 13  2  0
 12 14  1  0
  5 15  1  0
 15 16  1  0
 15 17  2  0
  9  3  1  0
M  END
>  <IC50>  (343) 
3.7

>  <cmpdNO>  (343) 
1077

$$$$

     RDKit          2D

 18 18  0  0  0  0  0  0  0  0999 V2000
    0.8707   -1.6454    0.0000 O   0  0  0  0  0  0  0  0  0  0  0  0
    0.4480   -3.0846    0.0000 C   0  0  0  0  0  0  0  0  0  0  0  0
    1.4831   -4.1702    0.0000 C   0  0  0  0  0  0  0  0  0  0  0  0
   -0.1644   -0.5597    0.0000 C   0  0  0  0  0  0  0  0  0  0  0  0
   -1.6221   -0.9132    0.0000 C   0  0  0  0  0  0  0  0  0  0  0  0
   -2.6572    0.1724    0.0000 C   0  0  0  0  0  0  0  0  0  0  0  0
   -2.2345    1.6116    0.0000 C   0  0  0  0  0  0  0  0  0  0  0  0
   -0.7768    1.9652    0.0000 C   0  0  0  0  0  0  0  0  0  0  0  0
   -0.3541    3.4044    0.0000 N   0  0  0  0  0  0  0  0  0  0  0  0
    0.2583    0.8795    0.0000 C   0  0  0  0  0  0  0  0  0  0  0  0
    1.7160    1.2331    0.0000 N   0  0  0  0  0  0  0  0  0  0  0  0
    2.7511    0.1474    0.0000 O   0  0  0  0  0  0  0  0  0  0  0  0
    4.2088    0.5010    0.0000 C   0  0  0  0  0  0  0  0  0  0  0  0
    4.6315    1.9402    0.0000 O   0  0  0  0  0  0  0  0  0  0  0  0
    5.2439   -0.5847    0.0000 C   0  0  0  0  0  0  0  0  0  0  0  0
   -4.1149   -0.1811    0.0000 C   0  0  0  0  0  0  0  0  0  0  0  0
   -5.1500    0.9045    0.0000 O   0  0  0  0  0  0  0  0  0  0  0  0
   -4.5376   -1.6204    0.0000 O   0  0  0  0  0  0  0  0  0  0  0  0
  1  2  1  0
  2  3  1  0
  1  4  1  0
  4  5  1  0
  5  6  2  0
  6  7  1  0
  7  8  1  0
  8  9  1  0
  8 10  1  0
 10 11  1  0
 11 12  1  0
 12 13  1  0
 13 14  2  0
 13 15  1  0
  6 16  1  0
 16 17  1  0
 16 18  2  0
 10  4  1  0
M  END
>  <IC50>  (344) 
2

>  <cmpdNO>  (344) 
1078

$$$$

     RDKit          2D

 19 19  0  0  0  0  0  0  0  0999 V2000
    0.9169   -1.2830    0.0000 O   0  0  0  0  0  0  0  0  0  0  0  0
    0.6069   -2.7506    0.0000 C   0  0  0  0  0  0  0  0  0  0  0  0
    1.7229   -3.7529    0.0000 C   0  0  0  0  0  0  0  0  0  0  0  0
    1.4128   -5.2205    0.0000 C   0  0  0  0  0  0  0  0  0  0  0  0
   -0.1991   -0.2807    0.0000 C   0  0  0  0  0  0  0  0  0  0  0  0
   -1.6251   -0.7460    0.0000 C   0  0  0  0  0  0  0  0  0  0  0  0
   -2.7410    0.2563    0.0000 C   0  0  0  0  0  0  0  0  0  0  0  0
   -2.4310    1.7239    0.0000 C   0  0  0  0  0  0  0  0  0  0  0  0
   -1.0050    2.1892    0.0000 C   0  0  0  0  0  0  0  0  0  0  0  0
   -0.6950    3.6568    0.0000 N   0  0  0  0  0  0  0  0  0  0  0  0
    0.1110    1.1869    0.0000 C   0  0  0  0  0  0  0  0  0  0  0  0
    1.5370    1.6522    0.0000 N   0  0  0  0  0  0  0  0  0  0  0  0
    2.6529    0.6499    0.0000 O   0  0  0  0  0  0  0  0  0  0  0  0
    4.0789    1.1152    0.0000 C   0  0  0  0  0  0  0  0  0  0  0  0
    4.3890    2.5828    0.0000 O   0  0  0  0  0  0  0  0  0  0  0  0
    5.1949    0.1129    0.0000 C   0  0  0  0  0  0  0  0  0  0  0  0
   -4.1670   -0.2090    0.0000 C   0  0  0  0  0  0  0  0  0  0  0  0
   -5.2830    0.7933    0.0000 O   0  0  0  0  0  0  0  0  0  0  0  0
   -4.4771   -1.6767    0.0000 O   0  0  0  0  0  0  0  0  0  0  0  0
  1  2  1  0
  2  3  1  0
  3  4  1  0
  1  5  1  0
  5  6  1  0
  6  7  2  0
  7  8  1  0
  8  9  1  0
  9 10  1  0
  9 11  1  0
 11 12  1  0
 12 13  1  0
 13 14  1  0
 14 15  2  0
 14 16  1  0
  7 17  1  0
 17 18  1  0
 17 19  2  0
 11  5  1  0
M  END
>  <IC50>  (345) 
0.18

>  <cmpdNO>  (345) 
1079

$$$$

     RDKit          2D

 20 20  0  0  0  0  0  0  0  0999 V2000
    1.0476   -0.6870    0.0000 O   0  0  0  0  0  0  0  0  0  0  0  0
    1.1964   -2.1796    0.0000 C   0  0  0  0  0  0  0  0  0  0  0  0
    2.5634   -2.7970    0.0000 C   0  0  0  0  0  0  0  0  0  0  0  0
    2.7123   -4.2896    0.0000 C   0  0  0  0  0  0  0  0  0  0  0  0
    4.0793   -4.9070    0.0000 C   0  0  0  0  0  0  0  0  0  0  0  0
   -0.3194   -0.0695    0.0000 C   0  0  0  0  0  0  0  0  0  0  0  0
   -1.5377   -0.9447    0.0000 C   0  0  0  0  0  0  0  0  0  0  0  0
   -2.9047   -0.3273    0.0000 C   0  0  0  0  0  0  0  0  0  0  0  0
   -3.0535    1.1653    0.0000 C   0  0  0  0  0  0  0  0  0  0  0  0
   -1.8353    2.0405    0.0000 C   0  0  0  0  0  0  0  0  0  0  0  0
   -1.9841    3.5331    0.0000 N   0  0  0  0  0  0  0  0  0  0  0  0
   -0.4682    1.4231    0.0000 C   0  0  0  0  0  0  0  0  0  0  0  0
    0.7500    2.2982    0.0000 N   0  0  0  0  0  0  0  0  0  0  0  0
    2.1170    1.6808    0.0000 O   0  0  0  0  0  0  0  0  0  0  0  0
    3.3352    2.5560    0.0000 C   0  0  0  0  0  0  0  0  0  0  0  0
    3.1864    4.0486    0.0000 O   0  0  0  0  0  0  0  0  0  0  0  0
    4.7023    1.9386    0.0000 C   0  0  0  0  0  0  0  0  0  0  0  0
   -4.1229   -1.2025    0.0000 C   0  0  0  0  0  0  0  0  0  0  0  0
   -5.4900   -0.5850    0.0000 O   0  0  0  0  0  0  0  0  0  0  0  0
   -3.9741   -2.6951    0.0000 O   0  0  0  0  0  0  0  0  0  0  0  0
  1  2  1  0
  2  3  1  0
  3  4  1  0
  4  5  1  0
  1  6  1  0
  6  7  1  0
  7  8  2  0
  8  9  1  0
  9 10  1  0
 10 11  1  0
 10 12  1  0
 12 13  1  0
 13 14  1  0
 14 15  1  0
 15 16  2  0
 15 17  1  0
  8 18  1  0
 18 19  1  0
 18 20  2  0
 12  6  1  0
M  END
>  <IC50>  (346) 
0.3

>  <cmpdNO>  (346) 
1080

$$$$

     RDKit          2D

 22 22  0  0  0  0  0  0  0  0999 V2000
   -0.5010   -0.3410    0.0000 O   0  0  0  0  0  0  0  0  0  0  0  0
   -1.6024    0.6773    0.0000 C   0  0  0  0  0  0  0  0  0  0  0  0
   -3.0349    0.2327    0.0000 C   0  0  0  0  0  0  0  0  0  0  0  0
   -4.1363    1.2510    0.0000 C   0  0  0  0  0  0  0  0  0  0  0  0
   -5.5689    0.8063    0.0000 C   0  0  0  0  0  0  0  0  0  0  0  0
   -6.6703    1.8246    0.0000 C   0  0  0  0  0  0  0  0  0  0  0  0
   -8.1028    1.3799    0.0000 C   0  0  0  0  0  0  0  0  0  0  0  0
    0.9316    0.1037    0.0000 C   0  0  0  0  0  0  0  0  0  0  0  0
    1.2628    1.5667    0.0000 C   0  0  0  0  0  0  0  0  0  0  0  0
    2.6954    2.0113    0.0000 C   0  0  0  0  0  0  0  0  0  0  0  0
    3.7967    0.9930    0.0000 C   0  0  0  0  0  0  0  0  0  0  0  0
    3.4655   -0.4700    0.0000 C   0  0  0  0  0  0  0  0  0  0  0  0
    4.5669   -1.4883    0.0000 N   0  0  0  0  0  0  0  0  0  0  0  0
    2.0330   -0.9146    0.0000 C   0  0  0  0  0  0  0  0  0  0  0  0
    1.7018   -2.3776    0.0000 N   0  0  0  0  0  0  0  0  0  0  0  0
    0.2692   -2.8223    0.0000 O   0  0  0  0  0  0  0  0  0  0  0  0
   -0.0620   -4.2853    0.0000 C   0  0  0  0  0  0  0  0  0  0  0  0
    1.0394   -5.3036    0.0000 O   0  0  0  0  0  0  0  0  0  0  0  0
   -1.4946   -4.7299    0.0000 C   0  0  0  0  0  0  0  0  0  0  0  0
    3.0266    3.4743    0.0000 C   0  0  0  0  0  0  0  0  0  0  0  0
    4.4591    3.9190    0.0000 O   0  0  0  0  0  0  0  0  0  0  0  0
    1.9252    4.4926    0.0000 O   0  0  0  0  0  0  0  0  0  0  0  0
  1  2  1  0
  2  3  1  0
  3  4  1  0
  4  5  1  0
  5  6  1  0
  6  7  1  0
  1  8  1  0
  8  9  1  0
  9 10  2  0
 10 11  1  0
 11 12  1  0
 12 13  1  0
 12 14  1  0
 14 15  1  0
 15 16  1  0
 16 17  1  0
 17 18  2  0
 17 19  1  0
 10 20  1  0
 20 21  1  0
 20 22  2  0
 14  8  1  0
M  END
>  <IC50>  (347) 
0.15

>  <cmpdNO>  (347) 
1082

$$$$

     RDKit          2D

 23 23  0  0  0  0  0  0  0  0999 V2000
   -0.0533   -0.4534    0.0000 O   0  0  0  0  0  0  0  0  0  0  0  0
   -1.2559    0.4432    0.0000 C   0  0  0  0  0  0  0  0  0  0  0  0
   -2.6336   -0.1499    0.0000 C   0  0  0  0  0  0  0  0  0  0  0  0
   -3.8361    0.7467    0.0000 C   0  0  0  0  0  0  0  0  0  0  0  0
   -5.2139    0.1536    0.0000 C   0  0  0  0  0  0  0  0  0  0  0  0
   -6.4164    1.0502    0.0000 C   0  0  0  0  0  0  0  0  0  0  0  0
   -7.7942    0.4571    0.0000 C   0  0  0  0  0  0  0  0  0  0  0  0
   -8.9967    1.3537    0.0000 C   0  0  0  0  0  0  0  0  0  0  0  0
    1.3244    0.1397    0.0000 C   0  0  0  0  0  0  0  0  0  0  0  0
    1.4997    1.6294    0.0000 C   0  0  0  0  0  0  0  0  0  0  0  0
    2.8774    2.2226    0.0000 C   0  0  0  0  0  0  0  0  0  0  0  0
    4.0799    1.3259    0.0000 C   0  0  0  0  0  0  0  0  0  0  0  0
    3.9047   -0.1638    0.0000 C   0  0  0  0  0  0  0  0  0  0  0  0
    5.1072   -1.0604    0.0000 N   0  0  0  0  0  0  0  0  0  0  0  0
    2.5270   -0.7569    0.0000 C   0  0  0  0  0  0  0  0  0  0  0  0
    2.3517   -2.2466    0.0000 N   0  0  0  0  0  0  0  0  0  0  0  0
    0.9740   -2.8397    0.0000 O   0  0  0  0  0  0  0  0  0  0  0  0
    0.7987   -4.3295    0.0000 C   0  0  0  0  0  0  0  0  0  0  0  0
    2.0013   -5.2261    0.0000 O   0  0  0  0  0  0  0  0  0  0  0  0
   -0.5790   -4.9226    0.0000 C   0  0  0  0  0  0  0  0  0  0  0  0
    3.0526    3.7123    0.0000 C   0  0  0  0  0  0  0  0  0  0  0  0
    4.4304    4.3054    0.0000 O   0  0  0  0  0  0  0  0  0  0  0  0
    1.8501    4.6089    0.0000 O   0  0  0  0  0  0  0  0  0  0  0  0
  1  2  1  0
  2  3  1  0
  3  4  1  0
  4  5  1  0
  5  6  1  0
  6  7  1  0
  7  8  1  0
  1  9  1  0
  9 10  1  0
 10 11  2  0
 11 12  1  0
 12 13  1  0
 13 14  1  0
 13 15  1  0
 15 16  1  0
 16 17  1  0
 17 18  1  0
 18 19  2  0
 18 20  1  0
 11 21  1  0
 21 22  1  0
 21 23  2  0
 15  9  1  0
M  END
>  <IC50>  (348) 
0.27

>  <cmpdNO>  (348) 
1083

$$$$

     RDKit          2D

 24 24  0  0  0  0  0  0  0  0999 V2000
    0.3909   -0.4755    0.0000 O   0  0  0  0  0  0  0  0  0  0  0  0
   -0.8336    0.3909    0.0000 C   0  0  0  0  0  0  0  0  0  0  0  0
   -2.1962   -0.2362    0.0000 C   0  0  0  0  0  0  0  0  0  0  0  0
   -3.4206    0.6303    0.0000 C   0  0  0  0  0  0  0  0  0  0  0  0
   -4.7832    0.0031    0.0000 C   0  0  0  0  0  0  0  0  0  0  0  0
   -6.0076    0.8696    0.0000 C   0  0  0  0  0  0  0  0  0  0  0  0
   -7.3702    0.2424    0.0000 C   0  0  0  0  0  0  0  0  0  0  0  0
   -8.5947    1.1089    0.0000 C   0  0  0  0  0  0  0  0  0  0  0  0
   -9.9573    0.4817    0.0000 C   0  0  0  0  0  0  0  0  0  0  0  0
    1.7535    0.1516    0.0000 C   0  0  0  0  0  0  0  0  0  0  0  0
    1.8916    1.6453    0.0000 C   0  0  0  0  0  0  0  0  0  0  0  0
    3.2542    2.2724    0.0000 C   0  0  0  0  0  0  0  0  0  0  0  0
    4.4787    1.4059    0.0000 C   0  0  0  0  0  0  0  0  0  0  0  0
    4.3405   -0.0877    0.0000 C   0  0  0  0  0  0  0  0  0  0  0  0
    5.5649   -0.9541    0.0000 N   0  0  0  0  0  0  0  0  0  0  0  0
    2.9779   -0.7148    0.0000 C   0  0  0  0  0  0  0  0  0  0  0  0
    2.8397   -2.2085    0.0000 N   0  0  0  0  0  0  0  0  0  0  0  0
    1.4771   -2.8356    0.0000 O   0  0  0  0  0  0  0  0  0  0  0  0
    1.3390   -4.3292    0.0000 C   0  0  0  0  0  0  0  0  0  0  0  0
    2.5634   -5.1957    0.0000 O   0  0  0  0  0  0  0  0  0  0  0  0
   -0.0236   -4.9564    0.0000 C   0  0  0  0  0  0  0  0  0  0  0  0
    3.3924    3.7660    0.0000 C   0  0  0  0  0  0  0  0  0  0  0  0
    4.7550    4.3932    0.0000 O   0  0  0  0  0  0  0  0  0  0  0  0
    2.1680    4.6325    0.0000 O   0  0  0  0  0  0  0  0  0  0  0  0
  1  2  1  0
  2  3  1  0
  3  4  1  0
  4  5  1  0
  5  6  1  0
  6  7  1  0
  7  8  1  0
  8  9  1  0
  1 10  1  0
 10 11  1  0
 11 12  2  0
 12 13  1  0
 13 14  1  0
 14 15  1  0
 14 16  1  0
 16 17  1  0
 17 18  1  0
 18 19  1  0
 19 20  2  0
 19 21  1  0
 12 22  1  0
 22 23  1  0
 22 24  2  0
 16 10  1  0
M  END
>  <IC50>  (349) 
0.18

>  <cmpdNO>  (349) 
1084

$$$$

     RDKit          2D

 25 25  0  0  0  0  0  0  0  0999 V2000
    0.8557   -0.5005    0.0000 O   0  0  0  0  0  0  0  0  0  0  0  0
   -0.3976    0.3236    0.0000 C   0  0  0  0  0  0  0  0  0  0  0  0
   -1.7380   -0.3497    0.0000 C   0  0  0  0  0  0  0  0  0  0  0  0
   -2.9913    0.4744    0.0000 C   0  0  0  0  0  0  0  0  0  0  0  0
   -4.3317   -0.1990    0.0000 C   0  0  0  0  0  0  0  0  0  0  0  0
   -5.5850    0.6252    0.0000 C   0  0  0  0  0  0  0  0  0  0  0  0
   -6.9254   -0.0482    0.0000 C   0  0  0  0  0  0  0  0  0  0  0  0
   -8.1787    0.7759    0.0000 C   0  0  0  0  0  0  0  0  0  0  0  0
   -9.5190    0.1026    0.0000 C   0  0  0  0  0  0  0  0  0  0  0  0
  -10.7724    0.9267    0.0000 C   0  0  0  0  0  0  0  0  0  0  0  0
    2.1961    0.1728    0.0000 C   0  0  0  0  0  0  0  0  0  0  0  0
    2.2832    1.6703    0.0000 C   0  0  0  0  0  0  0  0  0  0  0  0
    3.6235    2.3437    0.0000 C   0  0  0  0  0  0  0  0  0  0  0  0
    4.8769    1.5195    0.0000 C   0  0  0  0  0  0  0  0  0  0  0  0
    4.7898    0.0221    0.0000 C   0  0  0  0  0  0  0  0  0  0  0  0
    6.0431   -0.8021    0.0000 N   0  0  0  0  0  0  0  0  0  0  0  0
    3.4494   -0.6513    0.0000 C   0  0  0  0  0  0  0  0  0  0  0  0
    3.3624   -2.1487    0.0000 N   0  0  0  0  0  0  0  0  0  0  0  0
    2.0220   -2.8221    0.0000 O   0  0  0  0  0  0  0  0  0  0  0  0
    1.9350   -4.3196    0.0000 C   0  0  0  0  0  0  0  0  0  0  0  0
    3.1883   -5.1437    0.0000 O   0  0  0  0  0  0  0  0  0  0  0  0
    0.5946   -4.9929    0.0000 C   0  0  0  0  0  0  0  0  0  0  0  0
    3.7106    3.8411    0.0000 C   0  0  0  0  0  0  0  0  0  0  0  0
    5.0510    4.5145    0.0000 O   0  0  0  0  0  0  0  0  0  0  0  0
    2.4573    4.6653    0.0000 O   0  0  0  0  0  0  0  0  0  0  0  0
  1  2  1  0
  2  3  1  0
  3  4  1  0
  4  5  1  0
  5  6  1  0
  6  7  1  0
  7  8  1  0
  8  9  1  0
  9 10  1  0
  1 11  1  0
 11 12  1  0
 12 13  2  0
 13 14  1  0
 14 15  1  0
 15 16  1  0
 15 17  1  0
 17 18  1  0
 18 19  1  0
 19 20  1  0
 20 21  2  0
 20 22  1  0
 13 23  1  0
 23 24  1  0
 23 25  2  0
 17 11  1  0
M  END
>  <IC50>  (350) 
0.21

>  <cmpdNO>  (350) 
1085

$$$$

     RDKit          2D

 26 26  0  0  0  0  0  0  0  0999 V2000
    1.3243   -0.5033    0.0000 O   0  0  0  0  0  0  0  0  0  0  0  0
    0.0667    0.3142    0.0000 C   0  0  0  0  0  0  0  0  0  0  0  0
   -1.2702   -0.3661    0.0000 C   0  0  0  0  0  0  0  0  0  0  0  0
   -2.5278    0.4514    0.0000 C   0  0  0  0  0  0  0  0  0  0  0  0
   -3.8646   -0.2289    0.0000 C   0  0  0  0  0  0  0  0  0  0  0  0
   -5.1222    0.5887    0.0000 C   0  0  0  0  0  0  0  0  0  0  0  0
   -6.4591   -0.0917    0.0000 C   0  0  0  0  0  0  0  0  0  0  0  0
   -7.7167    0.7259    0.0000 C   0  0  0  0  0  0  0  0  0  0  0  0
   -9.0535    0.0455    0.0000 C   0  0  0  0  0  0  0  0  0  0  0  0
  -10.3111    0.8631    0.0000 C   0  0  0  0  0  0  0  0  0  0  0  0
  -11.6480    0.1828    0.0000 C   0  0  0  0  0  0  0  0  0  0  0  0
    2.6611    0.1770    0.0000 C   0  0  0  0  0  0  0  0  0  0  0  0
    2.7403    1.6749    0.0000 C   0  0  0  0  0  0  0  0  0  0  0  0
    4.0772    2.3553    0.0000 C   0  0  0  0  0  0  0  0  0  0  0  0
    5.3348    1.5377    0.0000 C   0  0  0  0  0  0  0  0  0  0  0  0
    5.2556    0.0398    0.0000 C   0  0  0  0  0  0  0  0  0  0  0  0
    6.5132   -0.7778    0.0000 N   0  0  0  0  0  0  0  0  0  0  0  0
    3.9187   -0.6406    0.0000 C   0  0  0  0  0  0  0  0  0  0  0  0
    3.8395   -2.1385    0.0000 N   0  0  0  0  0  0  0  0  0  0  0  0
    2.5027   -2.8188    0.0000 O   0  0  0  0  0  0  0  0  0  0  0  0
    2.4234   -4.3167    0.0000 C   0  0  0  0  0  0  0  0  0  0  0  0
    3.6810   -5.1343    0.0000 O   0  0  0  0  0  0  0  0  0  0  0  0
    1.0866   -4.9971    0.0000 C   0  0  0  0  0  0  0  0  0  0  0  0
    4.1564    3.8532    0.0000 C   0  0  0  0  0  0  0  0  0  0  0  0
    5.4932    4.5335    0.0000 O   0  0  0  0  0  0  0  0  0  0  0  0
    2.8988    4.6707    0.0000 O   0  0  0  0  0  0  0  0  0  0  0  0
  1  2  1  0
  2  3  1  0
  3  4  1  0
  4  5  1  0
  5  6  1  0
  6  7  1  0
  7  8  1  0
  8  9  1  0
  9 10  1  0
 10 11  1  0
  1 12  1  0
 12 13  1  0
 13 14  2  0
 14 15  1  0
 15 16  1  0
 16 17  1  0
 16 18  1  0
 18 19  1  0
 19 20  1  0
 20 21  1  0
 21 22  2  0
 21 23  1  0
 14 24  1  0
 24 25  1  0
 24 26  2  0
 18 12  1  0
M  END
>  <IC50>  (351) 
0.6

>  <cmpdNO>  (351) 
1086

$$$$

     RDKit          2D

 20 20  0  0  0  0  0  0  0  0999 V2000
    0.9011   -1.0080    0.0000 O   0  0  0  0  0  0  0  0  0  0  0  0
    0.7885   -2.5038    0.0000 C   0  0  0  0  0  0  0  0  0  0  0  0
    2.0275   -3.3492    0.0000 C   0  0  0  0  0  0  0  0  0  0  0  0
    1.9149   -4.8450    0.0000 C   0  0  0  0  0  0  0  0  0  0  0  0
    3.3792   -2.6989    0.0000 C   0  0  0  0  0  0  0  0  0  0  0  0
   -0.3379   -0.1626    0.0000 C   0  0  0  0  0  0  0  0  0  0  0  0
   -1.6896   -0.8129    0.0000 C   0  0  0  0  0  0  0  0  0  0  0  0
   -2.9287    0.0325    0.0000 C   0  0  0  0  0  0  0  0  0  0  0  0
   -2.8160    1.5283    0.0000 C   0  0  0  0  0  0  0  0  0  0  0  0
   -1.4643    2.1786    0.0000 C   0  0  0  0  0  0  0  0  0  0  0  0
   -1.3517    3.6744    0.0000 N   0  0  0  0  0  0  0  0  0  0  0  0
   -0.2253    1.3332    0.0000 C   0  0  0  0  0  0  0  0  0  0  0  0
    1.1264    1.9835    0.0000 N   0  0  0  0  0  0  0  0  0  0  0  0
    2.3655    1.1381    0.0000 O   0  0  0  0  0  0  0  0  0  0  0  0
    3.7171    1.7884    0.0000 C   0  0  0  0  0  0  0  0  0  0  0  0
    3.8298    3.2842    0.0000 O   0  0  0  0  0  0  0  0  0  0  0  0
    4.9562    0.9430    0.0000 C   0  0  0  0  0  0  0  0  0  0  0  0
   -4.2804   -0.6178    0.0000 C   0  0  0  0  0  0  0  0  0  0  0  0
   -5.5194    0.2276    0.0000 O   0  0  0  0  0  0  0  0  0  0  0  0
   -4.3930   -2.1136    0.0000 O   0  0  0  0  0  0  0  0  0  0  0  0
  1  2  1  0
  2  3  1  0
  3  4  1  0
  3  5  1  0
  1  6  1  0
  6  7  1  0
  7  8  2  0
  8  9  1  0
  9 10  1  0
 10 11  1  0
 10 12  1  0
 12 13  1  0
 13 14  1  0
 14 15  1  0
 15 16  2  0
 15 17  1  0
  8 18  1  0
 18 19  1  0
 18 20  2  0
 12  6  1  0
M  END
>  <IC50>  (352) 
0.2

>  <cmpdNO>  (352) 
1087

$$$$

     RDKit          2D

 20 20  0  0  0  0  0  0  0  0999 V2000
    0.8263   -1.3471    0.0000 O   0  0  0  0  0  0  0  0  0  0  0  0
    0.2218   -2.7200    0.0000 C   0  0  0  0  0  0  0  0  0  0  0  0
   -1.2693   -2.8829    0.0000 C   0  0  0  0  0  0  0  0  0  0  0  0
   -1.8737   -4.2558    0.0000 C   0  0  0  0  0  0  0  0  0  0  0  0
    1.1085   -3.9298    0.0000 C   0  0  0  0  0  0  0  0  0  0  0  0
   -0.0604   -0.1373    0.0000 C   0  0  0  0  0  0  0  0  0  0  0  0
   -1.5516   -0.3003    0.0000 C   0  0  0  0  0  0  0  0  0  0  0  0
   -2.4383    0.9096    0.0000 C   0  0  0  0  0  0  0  0  0  0  0  0
   -1.8338    2.2824    0.0000 C   0  0  0  0  0  0  0  0  0  0  0  0
   -0.3427    2.4454    0.0000 C   0  0  0  0  0  0  0  0  0  0  0  0
    0.2617    3.8182    0.0000 N   0  0  0  0  0  0  0  0  0  0  0  0
    0.5440    1.2355    0.0000 C   0  0  0  0  0  0  0  0  0  0  0  0
    2.0351    1.3985    0.0000 N   0  0  0  0  0  0  0  0  0  0  0  0
    2.9218    0.1887    0.0000 O   0  0  0  0  0  0  0  0  0  0  0  0
    4.4129    0.3516    0.0000 C   0  0  0  0  0  0  0  0  0  0  0  0
    5.0173    1.7245    0.0000 O   0  0  0  0  0  0  0  0  0  0  0  0
    5.2996   -0.8582    0.0000 C   0  0  0  0  0  0  0  0  0  0  0  0
   -3.9294    0.7466    0.0000 C   0  0  0  0  0  0  0  0  0  0  0  0
   -4.8161    1.9565    0.0000 O   0  0  0  0  0  0  0  0  0  0  0  0
   -4.5338   -0.6262    0.0000 O   0  0  0  0  0  0  0  0  0  0  0  0
  2  1  1  6
  2  3  1  0
  3  4  1  0
  2  5  1  0
  1  6  1  0
  6  7  1  0
  7  8  2  0
  8  9  1  0
  9 10  1  0
 10 11  1  0
 10 12  1  0
 12 13  1  0
 13 14  1  0
 14 15  1  0
 15 16  2  0
 15 17  1  0
  8 18  1  0
 18 19  1  0
 18 20  2  0
 12  6  1  0
M  END
>  <IC50>  (353) 
0.01

>  <cmpdNO>  (353) 
1088

$$$$

     RDKit          2D

 20 20  0  0  0  0  0  0  0  0999 V2000
    0.8263   -1.3471    0.0000 O   0  0  0  0  0  0  0  0  0  0  0  0
    0.2218   -2.7200    0.0000 C   0  0  0  0  0  0  0  0  0  0  0  0
   -1.2693   -2.8829    0.0000 C   0  0  0  0  0  0  0  0  0  0  0  0
   -1.8737   -4.2558    0.0000 C   0  0  0  0  0  0  0  0  0  0  0  0
    1.1085   -3.9298    0.0000 C   0  0  0  0  0  0  0  0  0  0  0  0
   -0.0604   -0.1373    0.0000 C   0  0  0  0  0  0  0  0  0  0  0  0
   -1.5516   -0.3003    0.0000 C   0  0  0  0  0  0  0  0  0  0  0  0
   -2.4383    0.9096    0.0000 C   0  0  0  0  0  0  0  0  0  0  0  0
   -1.8338    2.2824    0.0000 C   0  0  0  0  0  0  0  0  0  0  0  0
   -0.3427    2.4454    0.0000 C   0  0  0  0  0  0  0  0  0  0  0  0
    0.2617    3.8182    0.0000 N   0  0  0  0  0  0  0  0  0  0  0  0
    0.5440    1.2355    0.0000 C   0  0  0  0  0  0  0  0  0  0  0  0
    2.0351    1.3985    0.0000 N   0  0  0  0  0  0  0  0  0  0  0  0
    2.9218    0.1887    0.0000 O   0  0  0  0  0  0  0  0  0  0  0  0
    4.4129    0.3516    0.0000 C   0  0  0  0  0  0  0  0  0  0  0  0
    5.0173    1.7245    0.0000 O   0  0  0  0  0  0  0  0  0  0  0  0
    5.2996   -0.8582    0.0000 C   0  0  0  0  0  0  0  0  0  0  0  0
   -3.9294    0.7466    0.0000 C   0  0  0  0  0  0  0  0  0  0  0  0
   -4.8161    1.9565    0.0000 O   0  0  0  0  0  0  0  0  0  0  0  0
   -4.5338   -0.6262    0.0000 O   0  0  0  0  0  0  0  0  0  0  0  0
  2  1  1  1
  2  3  1  0
  3  4  1  0
  2  5  1  0
  1  6  1  0
  6  7  1  0
  7  8  2  0
  8  9  1  0
  9 10  1  0
 10 11  1  0
 10 12  1  0
 12 13  1  0
 13 14  1  0
 14 15  1  0
 15 16  2  0
 15 17  1  0
  8 18  1  0
 18 19  1  0
 18 20  2  0
 12  6  1  0
M  END
>  <IC50>  (354) 
0.009

>  <cmpdNO>  (354) 
1089

$$$$

     RDKit          2D

 22 22  0  0  0  0  0  0  0  0999 V2000
    0.7128   -1.1072    0.0000 O   0  0  0  0  0  0  0  0  0  0  0  0
   -0.2016   -2.2963    0.0000 C   0  0  0  0  0  0  0  0  0  0  0  0
   -1.6886   -2.0989    0.0000 C   0  0  0  0  0  0  0  0  0  0  0  0
   -2.6030   -3.2880    0.0000 C   0  0  0  0  0  0  0  0  0  0  0  0
   -4.0899   -3.0906    0.0000 C   0  0  0  0  0  0  0  0  0  0  0  0
    0.3710   -3.6827    0.0000 C   0  0  0  0  0  0  0  0  0  0  0  0
   -0.5434   -4.8718    0.0000 C   0  0  0  0  0  0  0  0  0  0  0  0
    0.1402    0.2792    0.0000 C   0  0  0  0  0  0  0  0  0  0  0  0
   -1.3467    0.4766    0.0000 C   0  0  0  0  0  0  0  0  0  0  0  0
   -1.9193    1.8630    0.0000 C   0  0  0  0  0  0  0  0  0  0  0  0
   -1.0049    3.0521    0.0000 C   0  0  0  0  0  0  0  0  0  0  0  0
    0.4821    2.8547    0.0000 C   0  0  0  0  0  0  0  0  0  0  0  0
    1.3965    4.0438    0.0000 N   0  0  0  0  0  0  0  0  0  0  0  0
    1.0546    1.4683    0.0000 C   0  0  0  0  0  0  0  0  0  0  0  0
    2.5416    1.2709    0.0000 N   0  0  0  0  0  0  0  0  0  0  0  0
    3.1141   -0.1155    0.0000 O   0  0  0  0  0  0  0  0  0  0  0  0
    4.6011   -0.3129    0.0000 C   0  0  0  0  0  0  0  0  0  0  0  0
    5.5155    0.8762    0.0000 O   0  0  0  0  0  0  0  0  0  0  0  0
    5.1737   -1.6993    0.0000 C   0  0  0  0  0  0  0  0  0  0  0  0
   -3.4063    2.0603    0.0000 C   0  0  0  0  0  0  0  0  0  0  0  0
   -3.9788    3.4468    0.0000 O   0  0  0  0  0  0  0  0  0  0  0  0
   -4.3207    0.8713    0.0000 O   0  0  0  0  0  0  0  0  0  0  0  0
  1  2  1  0
  2  3  1  0
  3  4  1  0
  4  5  2  0
  2  6  1  0
  6  7  1  0
  1  8  1  0
  8  9  1  0
  9 10  2  0
 10 11  1  0
 11 12  1  0
 12 13  1  0
 12 14  1  0
 14 15  1  0
 15 16  1  0
 16 17  1  0
 17 18  2  0
 17 19  1  0
 10 20  1  0
 20 21  1  0
 20 22  2  0
 14  8  1  0
M  END
>  <IC50>  (355) 
0.001

>  <cmpdNO>  (355) 
1091

$$$$

     RDKit          2D

 26 26  0  0  0  0  0  0  0  0999 V2000
    1.3770   -1.1953    0.0000 O   0  0  0  0  0  0  0  0  0  0  0  0
    0.0041   -1.7996    0.0000 C   0  0  0  0  0  0  0  0  0  0  0  0
   -1.2056   -0.9127    0.0000 C   0  0  0  0  0  0  0  0  0  0  0  0
   -2.5785   -1.5170    0.0000 C   0  0  0  0  0  0  0  0  0  0  0  0
   -3.7883   -0.6302    0.0000 C   0  0  0  0  0  0  0  0  0  0  0  0
   -5.1612   -1.2344    0.0000 C   0  0  0  0  0  0  0  0  0  0  0  0
   -6.3709   -0.3476    0.0000 C   0  0  0  0  0  0  0  0  0  0  0  0
   -7.7438   -0.9518    0.0000 C   0  0  0  0  0  0  0  0  0  0  0  0
   -8.9536   -0.0650    0.0000 C   0  0  0  0  0  0  0  0  0  0  0  0
   -0.1590   -3.2907    0.0000 C   0  0  0  0  0  0  0  0  0  0  0  0
   -1.5319   -3.8949    0.0000 C   0  0  0  0  0  0  0  0  0  0  0  0
    1.5402    0.2958    0.0000 C   0  0  0  0  0  0  0  0  0  0  0  0
    0.3304    1.1826    0.0000 C   0  0  0  0  0  0  0  0  0  0  0  0
    0.4936    2.6737    0.0000 C   0  0  0  0  0  0  0  0  0  0  0  0
    1.8665    3.2780    0.0000 C   0  0  0  0  0  0  0  0  0  0  0  0
    3.0763    2.3911    0.0000 C   0  0  0  0  0  0  0  0  0  0  0  0
    4.4492    2.9954    0.0000 N   0  0  0  0  0  0  0  0  0  0  0  0
    2.9131    0.9000    0.0000 C   0  0  0  0  0  0  0  0  0  0  0  0
    4.1229    0.0132    0.0000 N   0  0  0  0  0  0  0  0  0  0  0  0
    3.9597   -1.4779    0.0000 O   0  0  0  0  0  0  0  0  0  0  0  0
    5.1695   -2.3648    0.0000 C   0  0  0  0  0  0  0  0  0  0  0  0
    6.5424   -1.7605    0.0000 O   0  0  0  0  0  0  0  0  0  0  0  0
    5.0063   -3.8559    0.0000 C   0  0  0  0  0  0  0  0  0  0  0  0
   -0.7162    3.5606    0.0000 C   0  0  0  0  0  0  0  0  0  0  0  0
   -0.5530    5.0517    0.0000 O   0  0  0  0  0  0  0  0  0  0  0  0
   -2.0891    2.9563    0.0000 O   0  0  0  0  0  0  0  0  0  0  0  0
  1  2  1  0
  2  3  1  0
  3  4  1  0
  4  5  1  0
  5  6  1  0
  6  7  1  0
  7  8  1  0
  8  9  1  0
  2 10  1  0
 10 11  1  0
  1 12  1  0
 12 13  1  0
 13 14  2  0
 14 15  1  0
 15 16  1  0
 16 17  1  0
 16 18  1  0
 18 19  1  0
 19 20  1  0
 20 21  1  0
 21 22  2  0
 21 23  1  0
 14 24  1  0
 24 25  1  0
 24 26  2  0
 18 12  1  0
M  END
>  <IC50>  (356) 
0.001

>  <cmpdNO>  (356) 
1093

$$$$

     RDKit          2D

 26 27  0  0  0  0  0  0  0  0999 V2000
    0.4423    0.9126    0.0000 O   0  0  0  0  0  0  0  0  0  0  0  0
    0.5909    2.4052    0.0000 C   0  0  0  0  0  0  0  0  0  0  0  0
    1.9579    3.0228    0.0000 C   0  0  0  0  0  0  0  0  0  0  0  0
    3.1762    2.1478    0.0000 C   0  0  0  0  0  0  0  0  0  0  0  0
    4.5432    2.7654    0.0000 C   0  0  0  0  0  0  0  0  0  0  0  0
    5.7615    1.8904    0.0000 C   0  0  0  0  0  0  0  0  0  0  0  0
    5.6129    0.3978    0.0000 C   0  0  0  0  0  0  0  0  0  0  0  0
    4.2460   -0.2198    0.0000 C   0  0  0  0  0  0  0  0  0  0  0  0
    3.0276    0.6552    0.0000 C   0  0  0  0  0  0  0  0  0  0  0  0
   -0.6274    3.2802    0.0000 C   0  0  0  0  0  0  0  0  0  0  0  0
   -1.9944    2.6626    0.0000 C   0  0  0  0  0  0  0  0  0  0  0  0
   -0.9246    0.2950    0.0000 C   0  0  0  0  0  0  0  0  0  0  0  0
   -2.1430    1.1700    0.0000 C   0  0  0  0  0  0  0  0  0  0  0  0
   -3.5099    0.5524    0.0000 C   0  0  0  0  0  0  0  0  0  0  0  0
   -3.6585   -0.9402    0.0000 C   0  0  0  0  0  0  0  0  0  0  0  0
   -2.4402   -1.8153    0.0000 C   0  0  0  0  0  0  0  0  0  0  0  0
   -2.5888   -3.3079    0.0000 N   0  0  0  0  0  0  0  0  0  0  0  0
   -1.0732   -1.1976    0.0000 C   0  0  0  0  0  0  0  0  0  0  0  0
    0.1451   -2.0727    0.0000 N   0  0  0  0  0  0  0  0  0  0  0  0
   -0.0035   -3.5653    0.0000 O   0  0  0  0  0  0  0  0  0  0  0  0
    1.2148   -4.4403    0.0000 C   0  0  0  0  0  0  0  0  0  0  0  0
    2.5818   -3.8227    0.0000 O   0  0  0  0  0  0  0  0  0  0  0  0
    1.0662   -5.9329    0.0000 C   0  0  0  0  0  0  0  0  0  0  0  0
   -4.7283    1.4274    0.0000 C   0  0  0  0  0  0  0  0  0  0  0  0
   -4.5797    2.9200    0.0000 O   0  0  0  0  0  0  0  0  0  0  0  0
   -6.0952    0.8098    0.0000 O   0  0  0  0  0  0  0  0  0  0  0  0
  1  2  1  0
  2  3  1  0
  3  4  1  0
  4  5  1  0
  5  6  1  0
  6  7  1  0
  7  8  1  0
  8  9  1  0
  2 10  1  0
 10 11  1  0
  1 12  1  0
 12 13  1  0
 13 14  2  0
 14 15  1  0
 15 16  1  0
 16 17  1  0
 16 18  1  0
 18 19  1  0
 19 20  1  0
 20 21  1  0
 21 22  2  0
 21 23  1  0
 14 24  1  0
 24 25  1  0
 24 26  2  0
  9  4  1  0
 18 12  1  0
M  END
>  <IC50>  (357) 
0.016

>  <cmpdNO>  (357) 
1095

$$$$

     RDKit          2D

 27 28  0  0  0  0  0  0  0  0999 V2000
    0.1443    0.3345    0.0000 O   0  0  0  0  0  0  0  0  0  0  0  0
    0.9151    1.6213    0.0000 C   0  0  0  0  0  0  0  0  0  0  0  0
    2.4149    1.5972    0.0000 C   0  0  0  0  0  0  0  0  0  0  0  0
    3.1439    0.2862    0.0000 C   0  0  0  0  0  0  0  0  0  0  0  0
    4.6437    0.2621    0.0000 C   0  0  0  0  0  0  0  0  0  0  0  0
    5.3727   -1.0488    0.0000 C   0  0  0  0  0  0  0  0  0  0  0  0
    6.8725   -1.0730    0.0000 C   0  0  0  0  0  0  0  0  0  0  0  0
    7.6433    0.2138    0.0000 C   0  0  0  0  0  0  0  0  0  0  0  0
    6.9143    1.5248    0.0000 C   0  0  0  0  0  0  0  0  0  0  0  0
    5.4145    1.5489    0.0000 C   0  0  0  0  0  0  0  0  0  0  0  0
    0.1861    2.9322    0.0000 C   0  0  0  0  0  0  0  0  0  0  0  0
   -1.3137    2.9564    0.0000 C   0  0  0  0  0  0  0  0  0  0  0  0
   -1.3555    0.3586    0.0000 C   0  0  0  0  0  0  0  0  0  0  0  0
   -2.0845    1.6696    0.0000 C   0  0  0  0  0  0  0  0  0  0  0  0
   -3.5843    1.6937    0.0000 C   0  0  0  0  0  0  0  0  0  0  0  0
   -4.3551    0.4069    0.0000 C   0  0  0  0  0  0  0  0  0  0  0  0
   -3.6261   -0.9040    0.0000 C   0  0  0  0  0  0  0  0  0  0  0  0
   -4.3969   -2.1908    0.0000 N   0  0  0  0  0  0  0  0  0  0  0  0
   -2.1263   -0.9282    0.0000 C   0  0  0  0  0  0  0  0  0  0  0  0
   -1.3973   -2.2391    0.0000 N   0  0  0  0  0  0  0  0  0  0  0  0
   -2.1681   -3.5259    0.0000 O   0  0  0  0  0  0  0  0  0  0  0  0
   -1.4391   -4.8368    0.0000 C   0  0  0  0  0  0  0  0  0  0  0  0
    0.0607   -4.8610    0.0000 O   0  0  0  0  0  0  0  0  0  0  0  0
   -2.2099   -6.1236    0.0000 C   0  0  0  0  0  0  0  0  0  0  0  0
   -4.3133    3.0047    0.0000 C   0  0  0  0  0  0  0  0  0  0  0  0
   -5.8131    3.0288    0.0000 O   0  0  0  0  0  0  0  0  0  0  0  0
   -3.5425    4.2915    0.0000 O   0  0  0  0  0  0  0  0  0  0  0  0
  1  2  1  0
  2  3  1  0
  3  4  1  0
  4  5  1  0
  5  6  1  0
  6  7  1  0
  7  8  1  0
  8  9  1  0
  9 10  1  0
  2 11  1  0
 11 12  1  0
  1 13  1  0
 13 14  1  0
 14 15  2  0
 15 16  1  0
 16 17  1  0
 17 18  1  0
 17 19  1  0
 19 20  1  0
 20 21  1  0
 21 22  1  0
 22 23  2  0
 22 24  1  0
 15 25  1  0
 25 26  1  0
 25 27  2  0
 10  5  1  0
 19 13  1  0
M  END
>  <IC50>  (358) 
0.001

>  <cmpdNO>  (358) 
1096

$$$$

     RDKit          2D

 23 24  0  0  0  0  0  0  0  0999 V2000
    0.3770    1.4027    0.0000 O   0  0  0  0  0  0  0  0  0  0  0  0
    1.5890    0.5190    0.0000 C   0  0  0  0  0  0  0  0  0  0  0  0
    2.9604    1.1268    0.0000 C   0  0  0  0  0  0  0  0  0  0  0  0
    4.1724    0.2432    0.0000 C   0  0  0  0  0  0  0  0  0  0  0  0
    5.5438    0.8510    0.0000 C   0  0  0  0  0  0  0  0  0  0  0  0
    5.7030    2.3425    0.0000 C   0  0  0  0  0  0  0  0  0  0  0  0
    4.4910    3.2262    0.0000 C   0  0  0  0  0  0  0  0  0  0  0  0
    3.1196    2.6184    0.0000 C   0  0  0  0  0  0  0  0  0  0  0  0
   -0.9943    0.7948    0.0000 C   0  0  0  0  0  0  0  0  0  0  0  0
   -2.2064    1.6785    0.0000 C   0  0  0  0  0  0  0  0  0  0  0  0
   -3.5777    1.0707    0.0000 C   0  0  0  0  0  0  0  0  0  0  0  0
   -3.7370   -0.4208    0.0000 C   0  0  0  0  0  0  0  0  0  0  0  0
   -2.5249   -1.3045    0.0000 C   0  0  0  0  0  0  0  0  0  0  0  0
   -2.6842   -2.7960    0.0000 N   0  0  0  0  0  0  0  0  0  0  0  0
   -1.1536   -0.6967    0.0000 C   0  0  0  0  0  0  0  0  0  0  0  0
    0.0585   -1.5804    0.0000 N   0  0  0  0  0  0  0  0  0  0  0  0
   -0.1008   -3.0719    0.0000 O   0  0  0  0  0  0  0  0  0  0  0  0
    1.1113   -3.9556    0.0000 C   0  0  0  0  0  0  0  0  0  0  0  0
    2.4826   -3.3477    0.0000 O   0  0  0  0  0  0  0  0  0  0  0  0
    0.9520   -5.4471    0.0000 C   0  0  0  0  0  0  0  0  0  0  0  0
   -4.7898    1.9544    0.0000 C   0  0  0  0  0  0  0  0  0  0  0  0
   -4.6305    3.4459    0.0000 O   0  0  0  0  0  0  0  0  0  0  0  0
   -6.1611    1.3465    0.0000 O   0  0  0  0  0  0  0  0  0  0  0  0
  1  2  1  0
  2  3  1  0
  3  4  2  0
  4  5  1  0
  5  6  2  0
  6  7  1  0
  7  8  2  0
  1  9  1  0
  9 10  1  0
 10 11  2  0
 11 12  1  0
 12 13  1  0
 13 14  1  0
 13 15  1  0
 15 16  1  0
 16 17  1  0
 17 18  1  0
 18 19  2  0
 18 20  1  0
 11 21  1  0
 21 22  1  0
 21 23  2  0
  8  3  1  0
 15  9  1  0
M  END
>  <IC50>  (359) 
0.62

>  <cmpdNO>  (359) 
1098

$$$$

     RDKit          2D

 27 28  0  0  0  0  0  0  0  0999 V2000
    0.1443    0.3345    0.0000 O   0  0  0  0  0  0  0  0  0  0  0  0
    0.9151    1.6213    0.0000 C   0  0  0  0  0  0  0  0  0  0  0  0
    2.4149    1.5972    0.0000 C   0  0  0  0  0  0  0  0  0  0  0  0
    3.1439    0.2862    0.0000 C   0  0  0  0  0  0  0  0  0  0  0  0
    4.6437    0.2621    0.0000 C   0  0  0  0  0  0  0  0  0  0  0  0
    5.3727   -1.0488    0.0000 C   0  0  0  0  0  0  0  0  0  0  0  0
    6.8725   -1.0730    0.0000 C   0  0  0  0  0  0  0  0  0  0  0  0
    7.6433    0.2138    0.0000 C   0  0  0  0  0  0  0  0  0  0  0  0
    6.9143    1.5248    0.0000 C   0  0  0  0  0  0  0  0  0  0  0  0
    5.4145    1.5489    0.0000 C   0  0  0  0  0  0  0  0  0  0  0  0
    0.1861    2.9322    0.0000 C   0  0  0  0  0  0  0  0  0  0  0  0
   -1.3137    2.9564    0.0000 C   0  0  0  0  0  0  0  0  0  0  0  0
   -1.3555    0.3586    0.0000 C   0  0  0  0  0  0  0  0  0  0  0  0
   -2.0845    1.6696    0.0000 C   0  0  0  0  0  0  0  0  0  0  0  0
   -3.5843    1.6937    0.0000 C   0  0  0  0  0  0  0  0  0  0  0  0
   -4.3551    0.4069    0.0000 C   0  0  0  0  0  0  0  0  0  0  0  0
   -3.6261   -0.9040    0.0000 C   0  0  0  0  0  0  0  0  0  0  0  0
   -4.3969   -2.1908    0.0000 N   0  0  0  0  0  0  0  0  0  0  0  0
   -2.1263   -0.9282    0.0000 C   0  0  0  0  0  0  0  0  0  0  0  0
   -1.3973   -2.2391    0.0000 N   0  0  0  0  0  0  0  0  0  0  0  0
   -2.1681   -3.5259    0.0000 O   0  0  0  0  0  0  0  0  0  0  0  0
   -1.4391   -4.8368    0.0000 C   0  0  0  0  0  0  0  0  0  0  0  0
    0.0607   -4.8610    0.0000 O   0  0  0  0  0  0  0  0  0  0  0  0
   -2.2099   -6.1236    0.0000 C   0  0  0  0  0  0  0  0  0  0  0  0
   -4.3133    3.0047    0.0000 C   0  0  0  0  0  0  0  0  0  0  0  0
   -5.8131    3.0288    0.0000 O   0  0  0  0  0  0  0  0  0  0  0  0
   -3.5425    4.2915    0.0000 O   0  0  0  0  0  0  0  0  0  0  0  0
  1  2  1  0
  2  3  1  0
  3  4  1  0
  4  5  1  0
  5  6  2  0
  6  7  1  0
  7  8  2  0
  8  9  1  0
  9 10  2  0
  2 11  1  0
 11 12  1  0
  1 13  1  0
 13 14  1  0
 14 15  2  0
 15 16  1  0
 16 17  1  0
 17 18  1  0
 17 19  1  0
 19 20  1  0
 20 21  1  0
 21 22  1  0
 22 23  2  0
 22 24  1  0
 15 25  1  0
 25 26  1  0
 25 27  2  0
 10  5  1  0
 19 13  1  0
M  END
>  <IC50>  (360) 
0

>  <cmpdNO>  (360) 
1099

$$$$

     RDKit          2D

 31 33  0  0  0  0  0  0  0  0999 V2000
   -2.2548    1.3070    0.0000 O   0  0  0  0  0  0  0  0  0  0  0  0
   -1.2679    0.1774    0.0000 C   0  0  0  0  0  0  0  0  0  0  0  0
    0.2039    0.4673    0.0000 C   0  0  0  0  0  0  0  0  0  0  0  0
    1.1908   -0.6623    0.0000 C   0  0  0  0  0  0  0  0  0  0  0  0
    2.6625   -0.3725    0.0000 C   0  0  0  0  0  0  0  0  0  0  0  0
    3.6494   -1.5020    0.0000 C   0  0  0  0  0  0  0  0  0  0  0  0
    5.1211   -1.2122    0.0000 C   0  0  0  0  0  0  0  0  0  0  0  0
    5.6059    0.2073    0.0000 C   0  0  0  0  0  0  0  0  0  0  0  0
    4.6190    1.3369    0.0000 C   0  0  0  0  0  0  0  0  0  0  0  0
    3.1473    1.0470    0.0000 C   0  0  0  0  0  0  0  0  0  0  0  0
    7.0777    0.4972    0.0000 C   0  0  0  0  0  0  0  0  0  0  0  0
    8.0646   -0.6324    0.0000 C   0  0  0  0  0  0  0  0  0  0  0  0
    9.5363   -0.3425    0.0000 C   0  0  0  0  0  0  0  0  0  0  0  0
   10.0211    1.0770    0.0000 C   0  0  0  0  0  0  0  0  0  0  0  0
    9.0342    2.2066    0.0000 C   0  0  0  0  0  0  0  0  0  0  0  0
    7.5625    1.9167    0.0000 C   0  0  0  0  0  0  0  0  0  0  0  0
   -3.7265    1.0171    0.0000 C   0  0  0  0  0  0  0  0  0  0  0  0
   -4.7134    2.1467    0.0000 C   0  0  0  0  0  0  0  0  0  0  0  0
   -6.1851    1.8568    0.0000 C   0  0  0  0  0  0  0  0  0  0  0  0
   -6.6699    0.4373    0.0000 C   0  0  0  0  0  0  0  0  0  0  0  0
   -5.6830   -0.6923    0.0000 C   0  0  0  0  0  0  0  0  0  0  0  0
   -6.1678   -2.1118    0.0000 N   0  0  0  0  0  0  0  0  0  0  0  0
   -4.2113   -0.4024    0.0000 C   0  0  0  0  0  0  0  0  0  0  0  0
   -3.2244   -1.5320    0.0000 N   0  0  0  0  0  0  0  0  0  0  0  0
   -3.7092   -2.9515    0.0000 O   0  0  0  0  0  0  0  0  0  0  0  0
   -2.7223   -4.0811    0.0000 C   0  0  0  0  0  0  0  0  0  0  0  0
   -1.2505   -3.7912    0.0000 O   0  0  0  0  0  0  0  0  0  0  0  0
   -3.2071   -5.5006    0.0000 C   0  0  0  0  0  0  0  0  0  0  0  0
   -7.1720    2.9864    0.0000 C   0  0  0  0  0  0  0  0  0  0  0  0
   -6.6872    4.4059    0.0000 O   0  0  0  0  0  0  0  0  0  0  0  0
   -8.6438    2.6965    0.0000 O   0  0  0  0  0  0  0  0  0  0  0  0
  1  2  1  0
  2  3  1  0
  3  4  1  0
  4  5  1  0
  5  6  2  0
  6  7  1  0
  7  8  2  0
  8  9  1  0
  9 10  2  0
  8 11  1  0
 11 12  2  0
 12 13  1  0
 13 14  2  0
 14 15  1  0
 15 16  2  0
  1 17  1  0
 17 18  1  0
 18 19  2  0
 19 20  1  0
 20 21  1  0
 21 22  1  0
 21 23  1  0
 23 24  1  0
 24 25  1  0
 25 26  1  0
 26 27  2  0
 26 28  1  0
 19 29  1  0
 29 30  1  0
 29 31  2  0
 10  5  1  0
 16 11  1  0
 23 17  1  0
M  END
>  <IC50>  (361) 
0.09

>  <cmpdNO>  (361) 
1101

$$$$

     RDKit          2D

 19 19  0  0  0  0  0  0  0  0999 V2000
    0.1683   -2.7308    0.0000 O   0  0  0  0  0  0  0  0  0  0  0  0
   -0.6237   -1.4570    0.0000 C   0  0  0  0  0  0  0  0  0  0  0  0
   -2.1229   -1.5060    0.0000 C   0  0  0  0  0  0  0  0  0  0  0  0
   -2.9150   -0.2322    0.0000 C   0  0  0  0  0  0  0  0  0  0  0  0
   -2.2079    1.0907    0.0000 C   0  0  0  0  0  0  0  0  0  0  0  0
   -0.7087    1.1397    0.0000 C   0  0  0  0  0  0  0  0  0  0  0  0
   -0.0016    2.4626    0.0000 N   0  0  0  0  0  0  0  0  0  0  0  0
    1.4976    2.5116    0.0000 C   0  0  0  0  0  0  0  0  0  0  0  0
    2.2048    3.8345    0.0000 N   0  0  0  0  0  0  0  0  0  0  0  0
    2.2897    1.2378    0.0000 N   0  0  0  0  0  0  0  0  0  0  0  0
    0.0834   -0.1341    0.0000 C   0  0  0  0  0  0  0  0  0  0  0  0
    1.5826   -0.0850    0.0000 N   0  0  0  0  0  0  0  0  0  0  0  0
    2.3746   -1.3589    0.0000 O   0  0  0  0  0  0  0  0  0  0  0  0
    3.8738   -1.3098    0.0000 C   0  0  0  0  0  0  0  0  0  0  0  0
    4.5810    0.0130    0.0000 O   0  0  0  0  0  0  0  0  0  0  0  0
    4.6659   -2.5836    0.0000 C   0  0  0  0  0  0  0  0  0  0  0  0
   -4.4142   -0.2812    0.0000 C   0  0  0  0  0  0  0  0  0  0  0  0
   -5.2063    0.9926    0.0000 O   0  0  0  0  0  0  0  0  0  0  0  0
   -5.1213   -1.6041    0.0000 O   0  0  0  0  0  0  0  0  0  0  0  0
  1  2  1  0
  2  3  1  0
  3  4  2  0
  4  5  1  0
  5  6  1  0
  6  7  1  0
  7  8  1  0
  8  9  1  0
  8 10  2  0
  6 11  1  0
 11 12  1  0
 12 13  1  0
 13 14  1  0
 14 15  2  0
 14 16  1  0
  4 17  1  0
 17 18  1  0
 17 19  2  0
 11  2  1  0
M  END
>  <IC50>  (362) 
0.01

>  <cmpdNO>  (362) 
1102

$$$$

     RDKit          2D

 23 23  0  0  0  0  0  0  0  0999 V2000
   -0.2788   -1.9277    0.0000 O   0  0  0  0  0  0  0  0  0  0  0  0
   -1.3912   -2.9340    0.0000 C   0  0  0  0  0  0  0  0  0  0  0  0
   -2.8188   -2.4738    0.0000 C   0  0  0  0  0  0  0  0  0  0  0  0
   -3.9312   -3.4801    0.0000 C   0  0  0  0  0  0  0  0  0  0  0  0
   -1.0759   -4.4005    0.0000 C   0  0  0  0  0  0  0  0  0  0  0  0
   -0.5941   -0.4613    0.0000 C   0  0  0  0  0  0  0  0  0  0  0  0
   -2.0217   -0.0010    0.0000 C   0  0  0  0  0  0  0  0  0  0  0  0
   -2.3370    1.4654    0.0000 C   0  0  0  0  0  0  0  0  0  0  0  0
   -1.2246    2.4717    0.0000 C   0  0  0  0  0  0  0  0  0  0  0  0
    0.2030    2.0115    0.0000 C   0  0  0  0  0  0  0  0  0  0  0  0
    1.3154    3.0178    0.0000 N   0  0  0  0  0  0  0  0  0  0  0  0
    2.7431    2.5576    0.0000 C   0  0  0  0  0  0  0  0  0  0  0  0
    3.8554    3.5639    0.0000 N   0  0  0  0  0  0  0  0  0  0  0  0
    3.0583    1.0911    0.0000 N   0  0  0  0  0  0  0  0  0  0  0  0
    0.5183    0.5450    0.0000 C   0  0  0  0  0  0  0  0  0  0  0  0
    1.9460    0.0848    0.0000 N   0  0  0  0  0  0  0  0  0  0  0  0
    2.2612   -1.3817    0.0000 O   0  0  0  0  0  0  0  0  0  0  0  0
    3.6889   -1.8419    0.0000 C   0  0  0  0  0  0  0  0  0  0  0  0
    4.8013   -0.8356    0.0000 O   0  0  0  0  0  0  0  0  0  0  0  0
    4.0042   -3.3084    0.0000 C   0  0  0  0  0  0  0  0  0  0  0  0
   -3.7647    1.9257    0.0000 C   0  0  0  0  0  0  0  0  0  0  0  0
   -4.0799    3.3921    0.0000 O   0  0  0  0  0  0  0  0  0  0  0  0
   -4.8771    0.9194    0.0000 O   0  0  0  0  0  0  0  0  0  0  0  0
  2  1  1  6
  2  3  1  0
  3  4  1  0
  2  5  1  0
  1  6  1  0
  6  7  1  0
  7  8  2  0
  8  9  1  0
  9 10  1  0
 10 11  1  0
 11 12  1  0
 12 13  1  0
 12 14  2  0
 10 15  1  0
 15 16  1  0
 16 17  1  0
 17 18  1  0
 18 19  2  0
 18 20  1  0
  8 21  1  0
 21 22  1  0
 21 23  2  0
 15  6  1  0
M  END
>  <IC50>  (363) 
0.001

>  <cmpdNO>  (363) 
1104

$$$$

     RDKit          2D

 23 23  0  0  0  0  0  0  0  0999 V2000
   -0.2788   -1.9277    0.0000 O   0  0  0  0  0  0  0  0  0  0  0  0
   -1.3912   -2.9340    0.0000 C   0  0  0  0  0  0  0  0  0  0  0  0
   -2.8188   -2.4738    0.0000 C   0  0  0  0  0  0  0  0  0  0  0  0
   -3.9312   -3.4801    0.0000 C   0  0  0  0  0  0  0  0  0  0  0  0
   -1.0759   -4.4005    0.0000 C   0  0  0  0  0  0  0  0  0  0  0  0
   -0.5941   -0.4613    0.0000 C   0  0  0  0  0  0  0  0  0  0  0  0
   -2.0217   -0.0010    0.0000 C   0  0  0  0  0  0  0  0  0  0  0  0
   -2.3370    1.4654    0.0000 C   0  0  0  0  0  0  0  0  0  0  0  0
   -1.2246    2.4717    0.0000 C   0  0  0  0  0  0  0  0  0  0  0  0
    0.2030    2.0115    0.0000 C   0  0  0  0  0  0  0  0  0  0  0  0
    1.3154    3.0178    0.0000 N   0  0  0  0  0  0  0  0  0  0  0  0
    2.7431    2.5576    0.0000 C   0  0  0  0  0  0  0  0  0  0  0  0
    3.8554    3.5639    0.0000 N   0  0  0  0  0  0  0  0  0  0  0  0
    3.0583    1.0911    0.0000 N   0  0  0  0  0  0  0  0  0  0  0  0
    0.5183    0.5450    0.0000 C   0  0  0  0  0  0  0  0  0  0  0  0
    1.9460    0.0848    0.0000 N   0  0  0  0  0  0  0  0  0  0  0  0
    2.2612   -1.3817    0.0000 O   0  0  0  0  0  0  0  0  0  0  0  0
    3.6889   -1.8419    0.0000 C   0  0  0  0  0  0  0  0  0  0  0  0
    4.8013   -0.8356    0.0000 O   0  0  0  0  0  0  0  0  0  0  0  0
    4.0042   -3.3084    0.0000 C   0  0  0  0  0  0  0  0  0  0  0  0
   -3.7647    1.9257    0.0000 C   0  0  0  0  0  0  0  0  0  0  0  0
   -4.0799    3.3921    0.0000 O   0  0  0  0  0  0  0  0  0  0  0  0
   -4.8771    0.9194    0.0000 O   0  0  0  0  0  0  0  0  0  0  0  0
  2  1  1  1
  2  3  1  0
  3  4  1  0
  2  5  1  0
  1  6  1  0
  6  7  1  0
  7  8  2  0
  8  9  1  0
  9 10  1  0
 10 11  1  0
 11 12  1  0
 12 13  1  0
 12 14  2  0
 10 15  1  0
 15 16  1  0
 16 17  1  0
 17 18  1  0
 18 19  2  0
 18 20  1  0
  8 21  1  0
 21 22  1  0
 21 23  2  0
 15  6  1  0
M  END
>  <IC50>  (364) 
0.001

>  <cmpdNO>  (364) 
1105

$$$$

     RDKit          2D

 24 24  0  0  0  0  0  0  0  0999 V2000
   -0.6222   -1.5958    0.0000 O   0  0  0  0  0  0  0  0  0  0  0  0
   -1.9573   -2.2796    0.0000 C   0  0  0  0  0  0  0  0  0  0  0  0
   -2.0326   -3.7777    0.0000 C   0  0  0  0  0  0  0  0  0  0  0  0
   -3.3677   -4.4615    0.0000 C   0  0  0  0  0  0  0  0  0  0  0  0
   -3.2170   -1.4653    0.0000 C   0  0  0  0  0  0  0  0  0  0  0  0
   -4.5521   -2.1491    0.0000 C   0  0  0  0  0  0  0  0  0  0  0  0
   -0.5469   -0.0977    0.0000 C   0  0  0  0  0  0  0  0  0  0  0  0
   -1.8066    0.7166    0.0000 C   0  0  0  0  0  0  0  0  0  0  0  0
   -1.7313    2.2147    0.0000 C   0  0  0  0  0  0  0  0  0  0  0  0
   -0.3962    2.8986    0.0000 C   0  0  0  0  0  0  0  0  0  0  0  0
    0.8635    2.0843    0.0000 C   0  0  0  0  0  0  0  0  0  0  0  0
    2.1986    2.7681    0.0000 N   0  0  0  0  0  0  0  0  0  0  0  0
    3.4583    1.9538    0.0000 C   0  0  0  0  0  0  0  0  0  0  0  0
    4.7934    2.6376    0.0000 N   0  0  0  0  0  0  0  0  0  0  0  0
    3.3830    0.4557    0.0000 N   0  0  0  0  0  0  0  0  0  0  0  0
    0.7882    0.5862    0.0000 C   0  0  0  0  0  0  0  0  0  0  0  0
    2.0479   -0.2281    0.0000 N   0  0  0  0  0  0  0  0  0  0  0  0
    1.9726   -1.7262    0.0000 O   0  0  0  0  0  0  0  0  0  0  0  0
    3.2323   -2.5405    0.0000 C   0  0  0  0  0  0  0  0  0  0  0  0
    4.5674   -1.8567    0.0000 O   0  0  0  0  0  0  0  0  0  0  0  0
    3.1570   -4.0386    0.0000 C   0  0  0  0  0  0  0  0  0  0  0  0
   -2.9910    3.0290    0.0000 C   0  0  0  0  0  0  0  0  0  0  0  0
   -2.9157    4.5271    0.0000 O   0  0  0  0  0  0  0  0  0  0  0  0
   -4.3261    2.3452    0.0000 O   0  0  0  0  0  0  0  0  0  0  0  0
  1  2  1  0
  2  3  1  0
  3  4  1  0
  2  5  1  0
  5  6  1  0
  1  7  1  0
  7  8  1  0
  8  9  2  0
  9 10  1  0
 10 11  1  0
 11 12  1  0
 12 13  1  0
 13 14  1  0
 13 15  2  0
 11 16  1  0
 16 17  1  0
 17 18  1  0
 18 19  1  0
 19 20  2  0
 19 21  1  0
  9 22  1  0
 22 23  1  0
 22 24  2  0
 16  7  1  0
M  END
>  <IC50>  (365) 
0.001

>  <cmpdNO>  (365) 
1106

$$$$

     RDKit          2D

 22 22  0  0  0  0  0  0  0  0999 V2000
    0.0327   -2.1298    0.0000 O   0  0  0  0  0  0  0  0  0  0  0  0
   -1.4655   -2.0568    0.0000 C   0  0  0  0  0  0  0  0  0  0  0  0
   -2.2779   -3.3178    0.0000 C   0  0  0  0  0  0  0  0  0  0  0  0
   -3.7761   -3.2447    0.0000 C   0  0  0  0  0  0  0  0  0  0  0  0
   -2.1514   -0.7228    0.0000 C   0  0  0  0  0  0  0  0  0  0  0  0
   -3.6496   -0.6497    0.0000 C   0  0  0  0  0  0  0  0  0  0  0  0
    0.8451   -0.8688    0.0000 C   0  0  0  0  0  0  0  0  0  0  0  0
    0.1592    0.4652    0.0000 C   0  0  0  0  0  0  0  0  0  0  0  0
   -1.3390    0.5382    0.0000 N   0  0  0  0  0  0  0  0  0  0  0  0
   -2.0249    1.8722    0.0000 O   0  0  0  0  0  0  0  0  0  0  0  0
   -3.5231    1.9453    0.0000 C   0  0  0  0  0  0  0  0  0  0  0  0
   -4.3355    0.6843    0.0000 O   0  0  0  0  0  0  0  0  0  0  0  0
   -4.2090    3.2793    0.0000 C   0  0  0  0  0  0  0  0  0  0  0  0
    0.9716    1.7262    0.0000 C   0  0  0  0  0  0  0  0  0  0  0  0
    0.2857    3.0602    0.0000 N   0  0  0  0  0  0  0  0  0  0  0  0
    2.4698    1.6531    0.0000 C   0  0  0  0  0  0  0  0  0  0  0  0
    3.1556    0.3191    0.0000 C   0  0  0  0  0  0  0  0  0  0  0  0
    4.6539    0.2461    0.0000 C   0  0  0  0  0  0  0  0  0  0  0  0
    5.4662    1.5070    0.0000 O   0  0  0  0  0  0  0  0  0  0  0  0
    5.3397   -1.0880    0.0000 O   0  0  0  0  0  0  0  0  0  0  0  0
    2.3433   -0.9419    0.0000 C   0  0  0  0  0  0  0  0  0  0  0  0
    3.0291   -2.2759    0.0000 C   0  0  0  0  0  0  0  0  0  0  0  0
  1  2  1  0
  2  3  1  0
  3  4  1  0
  2  5  1  0
  5  6  1  0
  1  7  1  0
  7  8  1  0
  8  9  1  0
  9 10  1  0
 10 11  1  0
 11 12  2  0
 11 13  1  0
  8 14  1  0
 14 15  1  0
 14 16  1  0
 16 17  1  0
 17 18  1  0
 18 19  1  0
 18 20  2  0
 17 21  2  0
 21 22  1  0
 21  7  1  0
M  END
>  <IC50>  (366) 
2.3

>  <cmpdNO>  (366) 
1107

$$$$

     RDKit          2D

 22 22  0  0  0  0  0  0  0  0999 V2000
    2.0919   -1.3389    0.0000 F   0  0  0  0  0  0  0  0  0  0  0  0
    1.4763    0.0289    0.0000 C   0  0  0  0  0  0  0  0  0  0  0  0
   -0.0161    0.1797    0.0000 C   0  0  0  0  0  0  0  0  0  0  0  0
   -0.8929   -1.0374    0.0000 O   0  0  0  0  0  0  0  0  0  0  0  0
   -0.2772   -2.4053    0.0000 C   0  0  0  0  0  0  0  0  0  0  0  0
   -1.1540   -3.6223    0.0000 C   0  0  0  0  0  0  0  0  0  0  0  0
   -0.5383   -4.9902    0.0000 C   0  0  0  0  0  0  0  0  0  0  0  0
    1.2152   -2.5560    0.0000 C   0  0  0  0  0  0  0  0  0  0  0  0
    1.8309   -3.9238    0.0000 C   0  0  0  0  0  0  0  0  0  0  0  0
   -0.6318    1.5475    0.0000 C   0  0  0  0  0  0  0  0  0  0  0  0
   -2.1242    1.6982    0.0000 N   0  0  0  0  0  0  0  0  0  0  0  0
   -3.0009    0.4811    0.0000 O   0  0  0  0  0  0  0  0  0  0  0  0
   -4.4933    0.6319    0.0000 C   0  0  0  0  0  0  0  0  0  0  0  0
   -5.1090    1.9997    0.0000 O   0  0  0  0  0  0  0  0  0  0  0  0
   -5.3701   -0.5852    0.0000 C   0  0  0  0  0  0  0  0  0  0  0  0
    0.2450    2.7646    0.0000 C   0  0  0  0  0  0  0  0  0  0  0  0
   -0.3707    4.1324    0.0000 N   0  0  0  0  0  0  0  0  0  0  0  0
    1.7374    2.6139    0.0000 C   0  0  0  0  0  0  0  0  0  0  0  0
    2.3530    1.2460    0.0000 C   0  0  0  0  0  0  0  0  0  0  0  0
    3.8454    1.0953    0.0000 C   0  0  0  0  0  0  0  0  0  0  0  0
    4.4611   -0.2725    0.0000 O   0  0  0  0  0  0  0  0  0  0  0  0
    4.7222    2.3124    0.0000 O   0  0  0  0  0  0  0  0  0  0  0  0
  1  2  1  0
  2  3  1  0
  3  4  1  0
  4  5  1  0
  5  6  1  0
  6  7  1  0
  5  8  1  0
  8  9  1  0
  3 10  1  0
 10 11  1  0
 11 12  1  0
 12 13  1  0
 13 14  2  0
 13 15  1  0
 10 16  1  0
 16 17  1  0
 16 18  1  0
 18 19  1  0
 19 20  1  0
 20 21  1  0
 20 22  2  0
  2 19  2  0
M  END
>  <IC50>  (367) 
0.003

>  <cmpdNO>  (367) 
1108

$$$$

     RDKit          2D

 22 22  0  0  0  0  0  0  0  0999 V2000
    1.2307   -0.9718    0.0000 O   0  0  0  0  0  0  0  0  0  0  0  0
    1.0143   -2.4561    0.0000 C   0  0  0  0  0  0  0  0  0  0  0  0
    2.1915   -3.3857    0.0000 C   0  0  0  0  0  0  0  0  0  0  0  0
    1.9751   -4.8700    0.0000 C   0  0  0  0  0  0  0  0  0  0  0  0
   -0.3794   -3.0109    0.0000 C   0  0  0  0  0  0  0  0  0  0  0  0
   -0.5958   -4.4952    0.0000 C   0  0  0  0  0  0  0  0  0  0  0  0
    0.0535   -0.0423    0.0000 C   0  0  0  0  0  0  0  0  0  0  0  0
   -1.3402   -0.5970    0.0000 C   0  0  0  0  0  0  0  0  0  0  0  0
   -2.5174    0.3326    0.0000 C   0  0  0  0  0  0  0  0  0  0  0  0
   -3.9110   -0.2221    0.0000 C   0  0  0  0  0  0  0  0  0  0  0  0
   -4.1275   -1.7064    0.0000 O   0  0  0  0  0  0  0  0  0  0  0  0
   -5.0883    0.7075    0.0000 O   0  0  0  0  0  0  0  0  0  0  0  0
   -2.3009    1.8169    0.0000 C   0  0  0  0  0  0  0  0  0  0  0  0
   -3.4782    2.7465    0.0000 C   0  0  0  0  0  0  0  0  0  0  0  0
   -0.9073    2.3716    0.0000 C   0  0  0  0  0  0  0  0  0  0  0  0
   -0.6908    3.8559    0.0000 N   0  0  0  0  0  0  0  0  0  0  0  0
    0.2699    1.4420    0.0000 C   0  0  0  0  0  0  0  0  0  0  0  0
    1.6636    1.9968    0.0000 N   0  0  0  0  0  0  0  0  0  0  0  0
    2.8408    1.0672    0.0000 O   0  0  0  0  0  0  0  0  0  0  0  0
    4.2345    1.6219    0.0000 C   0  0  0  0  0  0  0  0  0  0  0  0
    4.4509    3.1062    0.0000 O   0  0  0  0  0  0  0  0  0  0  0  0
    5.4117    0.6923    0.0000 C   0  0  0  0  0  0  0  0  0  0  0  0
  1  2  1  0
  2  3  1  0
  3  4  1  0
  2  5  1  0
  5  6  1  0
  1  7  1  0
  7  8  1  0
  8  9  2  0
  9 10  1  0
 10 11  1  0
 10 12  2  0
  9 13  1  0
 13 14  1  0
 13 15  1  0
 15 16  1  0
 15 17  1  0
 17 18  1  0
 18 19  1  0
 19 20  1  0
 20 21  2  0
 20 22  1  0
 17  7  1  0
M  END
>  <IC50>  (368) 
1.5

>  <cmpdNO>  (368) 
1109

$$$$

     RDKit          2D

 23 23  0  0  0  0  0  0  0  0999 V2000
    0.7264   -0.8222    0.0000 O   0  0  0  0  0  0  0  0  0  0  0  0
   -0.1666   -2.0275    0.0000 C   0  0  0  0  0  0  0  0  0  0  0  0
    0.4307   -3.4034    0.0000 C   0  0  0  0  0  0  0  0  0  0  0  0
   -0.4622   -4.6087    0.0000 C   0  0  0  0  0  0  0  0  0  0  0  0
    0.1351   -5.9846    0.0000 C   0  0  0  0  0  0  0  0  0  0  0  0
   -1.6568   -1.8568    0.0000 C   0  0  0  0  0  0  0  0  0  0  0  0
   -2.5498   -3.0620    0.0000 C   0  0  0  0  0  0  0  0  0  0  0  0
   -4.0401   -2.8913    0.0000 C   0  0  0  0  0  0  0  0  0  0  0  0
    0.1291    0.5537    0.0000 C   0  0  0  0  0  0  0  0  0  0  0  0
   -1.3612    0.7244    0.0000 C   0  0  0  0  0  0  0  0  0  0  0  0
   -1.9585    2.1004    0.0000 C   0  0  0  0  0  0  0  0  0  0  0  0
   -1.0655    3.3056    0.0000 C   0  0  0  0  0  0  0  0  0  0  0  0
    0.4247    3.1349    0.0000 C   0  0  0  0  0  0  0  0  0  0  0  0
    1.3177    4.3402    0.0000 N   0  0  0  0  0  0  0  0  0  0  0  0
    1.0220    1.7590    0.0000 C   0  0  0  0  0  0  0  0  0  0  0  0
    2.5123    1.5883    0.0000 N   0  0  0  0  0  0  0  0  0  0  0  0
    3.1096    0.2123    0.0000 O   0  0  0  0  0  0  0  0  0  0  0  0
    4.5998    0.0416    0.0000 C   0  0  0  0  0  0  0  0  0  0  0  0
    5.4928    1.2469    0.0000 O   0  0  0  0  0  0  0  0  0  0  0  0
    5.1971   -1.3343    0.0000 C   0  0  0  0  0  0  0  0  0  0  0  0
   -3.4487    2.2711    0.0000 C   0  0  0  0  0  0  0  0  0  0  0  0
   -4.0460    3.6470    0.0000 O   0  0  0  0  0  0  0  0  0  0  0  0
   -4.3417    1.0658    0.0000 O   0  0  0  0  0  0  0  0  0  0  0  0
  1  2  1  0
  2  3  1  0
  3  4  1  0
  4  5  1  0
  2  6  1  0
  6  7  1  0
  7  8  1  0
  1  9  1  0
  9 10  1  0
 10 11  2  0
 11 12  1  0
 12 13  1  0
 13 14  1  0
 13 15  1  0
 15 16  1  0
 16 17  1  0
 17 18  1  0
 18 19  2  0
 18 20  1  0
 11 21  1  0
 21 22  1  0
 21 23  2  0
 15  9  1  0
M  END
>  <IC50>  (369) 
0.016

>  <cmpdNO>  (369) 
1110

$$$$

     RDKit          2D

 43 45  0  0  0  0  0  0  0  0999 V2000
   -0.0938   -0.9705    0.0000 O   0  0  0  0  0  0  0  0  0  0  0  0
   -1.5802   -0.7688    0.0000 C   0  0  0  0  0  0  0  0  0  0  0  0
   -2.1487    0.6193    0.0000 C   0  0  0  0  0  0  0  0  0  0  0  0
   -1.2309    1.8057    0.0000 C   0  0  0  0  0  0  0  0  0  0  0  0
   -1.7994    3.1938    0.0000 O   0  0  0  0  0  0  0  0  0  0  0  0
    0.2555    1.6040    0.0000 C   0  0  0  0  0  0  0  0  0  0  0  0
    0.8240    0.2159    0.0000 C   0  0  0  0  0  0  0  0  0  0  0  0
    2.3104    0.0142    0.0000 C   0  0  0  0  0  0  0  0  0  0  0  0
    2.8789   -1.3738    0.0000 C   0  0  0  0  0  0  0  0  0  0  0  0
    4.3653   -1.5755    0.0000 C   0  0  0  0  0  0  0  0  0  0  0  0
    5.2832   -0.3891    0.0000 C   0  0  0  0  0  0  0  0  0  0  0  0
    6.7695   -0.5908    0.0000 O   0  0  0  0  0  0  0  0  0  0  0  0
    4.7146    0.9989    0.0000 C   0  0  0  0  0  0  0  0  0  0  0  0
    3.2282    1.2006    0.0000 C   0  0  0  0  0  0  0  0  0  0  0  0
   -3.6351    0.8210    0.0000 C   0  0  0  0  0  0  0  0  0  0  0  0
   -4.2036    2.2091    0.0000 O   0  0  0  0  0  0  0  0  0  0  0  0
   -4.5530   -0.3654    0.0000 C   0  0  0  0  0  0  0  0  0  0  0  0
   -3.9845   -1.7535    0.0000 C   0  0  0  0  0  0  0  0  0  0  0  0
   -4.9023   -2.9399    0.0000 O   0  0  0  0  0  0  0  0  0  0  0  0
   -2.4981   -1.9552    0.0000 C   0  0  0  0  0  0  0  0  0  0  0  0
    0.7264    9.3562    0.0000 O   0  0  0  0  0  0  0  0  0  0  0  0
   -0.1666    8.1509    0.0000 C   0  0  0  0  0  0  0  0  0  0  0  0
    0.4307    6.7750    0.0000 C   0  0  0  0  0  0  0  0  0  0  0  0
   -0.4622    5.5697    0.0000 C   0  0  0  0  0  0  0  0  0  0  0  0
    0.1351    4.1938    0.0000 C   0  0  0  0  0  0  0  0  0  0  0  0
   -1.6568    8.3216    0.0000 C   0  0  0  0  0  0  0  0  0  0  0  0
   -2.5498    7.1164    0.0000 C   0  0  0  0  0  0  0  0  0  0  0  0
   -4.0401    7.2871    0.0000 C   0  0  0  0  0  0  0  0  0  0  0  0
    0.1291   10.7321    0.0000 C   0  0  0  0  0  0  0  0  0  0  0  0
   -1.3612   10.9028    0.0000 C   0  0  0  0  0  0  0  0  0  0  0  0
   -1.9585   12.2788    0.0000 C   0  0  0  0  0  0  0  0  0  0  0  0
   -1.0655   13.4840    0.0000 C   0  0  0  0  0  0  0  0  0  0  0  0
    0.4247   13.3133    0.0000 C   0  0  0  0  0  0  0  0  0  0  0  0
    1.3177   14.5186    0.0000 N   0  0  0  0  0  0  0  0  0  0  0  0
    1.0220   11.9374    0.0000 C   0  0  0  0  0  0  0  0  0  0  0  0
    2.5123   11.7667    0.0000 N   0  0  0  0  0  0  0  0  0  0  0  0
    3.1096   10.3907    0.0000 O   0  0  0  0  0  0  0  0  0  0  0  0
    4.5998   10.2200    0.0000 C   0  0  0  0  0  0  0  0  0  0  0  0
    5.4928   11.4253    0.0000 O   0  0  0  0  0  0  0  0  0  0  0  0
    5.1971    8.8441    0.0000 C   0  0  0  0  0  0  0  0  0  0  0  0
   -3.4487   12.4495    0.0000 C   0  0  0  0  0  0  0  0  0  0  0  0
   -4.0460   13.8254    0.0000 O   0  0  0  0  0  0  0  0  0  0  0  0
   -4.3417   11.2442    0.0000 O   0  0  0  0  0  0  0  0  0  0  0  0
  1  2  1  0
  2  3  2  0
  3  4  1  0
  4  5  2  0
  4  6  1  0
  6  7  2  0
  7  8  1  0
  8  9  2  0
  9 10  1  0
 10 11  2  0
 11 12  1  0
 11 13  1  0
 13 14  2  0
  3 15  1  0
 15 16  1  0
 15 17  2  0
 17 18  1  0
 18 19  1  0
 18 20  2  0
 21 22  1  0
 22 23  1  0
 23 24  1  0
 24 25  1  0
 22 26  1  0
 26 27  1  0
 27 28  1  0
 21 29  1  0
 29 30  1  0
 30 31  2  0
 31 32  1  0
 32 33  1  0
 33 34  1  0
 33 35  1  0
 35 36  1  0
 36 37  1  0
 37 38  1  0
 38 39  2  0
 38 40  1  0
 31 41  1  0
 41 42  1  0
 41 43  2  0
  7  1  1  0
 14  8  1  0
 35 29  1  0
 20  2  1  0
M  END
>  <IC50>  (370) 
31.6

>  <cmpdNO>  (370) 
1111

$$$$

     RDKit          2D

 21 23  0  0  0  0  0  0  0  0999 V2000
   -0.2754   -0.8486    0.0000 O   0  0  0  0  0  0  0  0  0  0  0  0
   -1.7716   -0.7418    0.0000 C   0  0  0  0  0  0  0  0  0  0  0  0
   -2.4272    0.6074    0.0000 C   0  0  0  0  0  0  0  0  0  0  0  0
   -1.5866    1.8497    0.0000 C   0  0  0  0  0  0  0  0  0  0  0  0
   -2.2422    3.1988    0.0000 O   0  0  0  0  0  0  0  0  0  0  0  0
   -0.0904    1.7429    0.0000 C   0  0  0  0  0  0  0  0  0  0  0  0
    0.5652    0.3938    0.0000 C   0  0  0  0  0  0  0  0  0  0  0  0
    2.0614    0.2870    0.0000 C   0  0  0  0  0  0  0  0  0  0  0  0
    2.7170   -1.0622    0.0000 C   0  0  0  0  0  0  0  0  0  0  0  0
    4.2132   -1.1689    0.0000 C   0  0  0  0  0  0  0  0  0  0  0  0
    4.8688   -2.5181    0.0000 O   0  0  0  0  0  0  0  0  0  0  0  0
    5.0538    0.0734    0.0000 C   0  0  0  0  0  0  0  0  0  0  0  0
    6.5500   -0.0334    0.0000 O   0  0  0  0  0  0  0  0  0  0  0  0
    4.3982    1.4225    0.0000 C   0  0  0  0  0  0  0  0  0  0  0  0
    2.9020    1.5293    0.0000 C   0  0  0  0  0  0  0  0  0  0  0  0
   -3.9234    0.7142    0.0000 C   0  0  0  0  0  0  0  0  0  0  0  0
   -4.5790    2.0633    0.0000 O   0  0  0  0  0  0  0  0  0  0  0  0
   -4.7640   -0.5282    0.0000 C   0  0  0  0  0  0  0  0  0  0  0  0
   -4.1084   -1.8773    0.0000 C   0  0  0  0  0  0  0  0  0  0  0  0
   -4.9489   -3.1197    0.0000 O   0  0  0  0  0  0  0  0  0  0  0  0
   -2.6122   -1.9841    0.0000 C   0  0  0  0  0  0  0  0  0  0  0  0
  1  2  1  0
  2  3  2  0
  3  4  1  0
  4  5  2  0
  4  6  1  0
  6  7  2  0
  7  8  1  0
  8  9  2  0
  9 10  1  0
 10 11  1  0
 10 12  2  0
 12 13  1  0
 12 14  1  0
 14 15  2  0
  3 16  1  0
 16 17  1  0
 16 18  2  0
 18 19  1  0
 19 20  1  0
 19 21  2  0
  7  1  1  0
 15  8  1  0
 21  2  1  0
M  END
>  <IC50>  (371) 
33.7

>  <cmpdNO>  (371) 
1112

$$$$

     RDKit          2D

 22 24  0  0  0  0  0  0  0  0999 V2000
    0.5050   -1.0070    0.0000 O   0  0  0  0  0  0  0  0  0  0  0  0
   -0.9857   -0.8405    0.0000 C   0  0  0  0  0  0  0  0  0  0  0  0
   -1.5869    0.5337    0.0000 C   0  0  0  0  0  0  0  0  0  0  0  0
   -3.0777    0.7002    0.0000 C   0  0  0  0  0  0  0  0  0  0  0  0
   -3.6789    2.0744    0.0000 O   0  0  0  0  0  0  0  0  0  0  0  0
   -3.9672   -0.5076    0.0000 C   0  0  0  0  0  0  0  0  0  0  0  0
   -5.4579   -0.3411    0.0000 O   0  0  0  0  0  0  0  0  0  0  0  0
   -6.0591    1.0332    0.0000 C   0  0  0  0  0  0  0  0  0  0  0  0
   -3.3660   -1.8818    0.0000 C   0  0  0  0  0  0  0  0  0  0  0  0
   -4.2556   -3.0896    0.0000 O   0  0  0  0  0  0  0  0  0  0  0  0
   -1.8753   -2.0483    0.0000 C   0  0  0  0  0  0  0  0  0  0  0  0
   -0.6974    1.7415    0.0000 C   0  0  0  0  0  0  0  0  0  0  0  0
   -1.2986    3.1157    0.0000 O   0  0  0  0  0  0  0  0  0  0  0  0
    0.7933    1.5750    0.0000 C   0  0  0  0  0  0  0  0  0  0  0  0
    1.3945    0.2007    0.0000 C   0  0  0  0  0  0  0  0  0  0  0  0
    2.8853    0.0343    0.0000 C   0  0  0  0  0  0  0  0  0  0  0  0
    3.4865   -1.3400    0.0000 C   0  0  0  0  0  0  0  0  0  0  0  0
    4.9772   -1.5065    0.0000 C   0  0  0  0  0  0  0  0  0  0  0  0
    5.8667   -0.2987    0.0000 C   0  0  0  0  0  0  0  0  0  0  0  0
    7.3575   -0.4652    0.0000 O   0  0  0  0  0  0  0  0  0  0  0  0
    5.2655    1.0756    0.0000 C   0  0  0  0  0  0  0  0  0  0  0  0
    3.7748    1.2420    0.0000 C   0  0  0  0  0  0  0  0  0  0  0  0
  1  2  1  0
  2  3  2  0
  3  4  1  0
  4  5  1  0
  4  6  2  0
  6  7  1  0
  7  8  1  0
  6  9  1  0
  9 10  1  0
  9 11  2  0
  3 12  1  0
 12 13  2  0
 12 14  1  0
 14 15  2  0
 15 16  1  0
 16 17  2  0
 17 18  1  0
 18 19  2  0
 19 20  1  0
 19 21  1  0
 21 22  2  0
 15  1  1  0
 22 16  1  0
 11  2  1  0
M  END
>  <IC50>  (372) 
46.3

>  <cmpdNO>  (372) 
1113

$$$$

     RDKit          2D

 19 21  0  0  0  0  0  0  0  0999 V2000
    1.4935   -2.0814    0.0000 O   0  0  0  0  0  0  0  0  0  0  0  0
    0.0090   -1.8665    0.0000 C   0  0  0  0  0  0  0  0  0  0  0  0
   -0.5472   -0.4735    0.0000 C   0  0  0  0  0  0  0  0  0  0  0  0
    0.3812    0.7047    0.0000 C   0  0  0  0  0  0  0  0  0  0  0  0
   -0.1749    2.0978    0.0000 O   0  0  0  0  0  0  0  0  0  0  0  0
    1.8657    0.4898    0.0000 C   0  0  0  0  0  0  0  0  0  0  0  0
    2.4219   -0.9033    0.0000 C   0  0  0  0  0  0  0  0  0  0  0  0
    3.9064   -1.1182    0.0000 C   0  0  0  0  0  0  0  0  0  0  0  0
    4.8348    0.0600    0.0000 C   0  0  0  0  0  0  0  0  0  0  0  0
    6.3193   -0.1549    0.0000 O   0  0  0  0  0  0  0  0  0  0  0  0
    4.2786    1.4531    0.0000 C   0  0  0  0  0  0  0  0  0  0  0  0
    2.7941    1.6680    0.0000 C   0  0  0  0  0  0  0  0  0  0  0  0
   -2.0317   -0.2586    0.0000 C   0  0  0  0  0  0  0  0  0  0  0  0
   -2.5878    1.1345    0.0000 C   0  0  0  0  0  0  0  0  0  0  0  0
   -4.0724    1.3494    0.0000 C   0  0  0  0  0  0  0  0  0  0  0  0
   -5.0007    0.1712    0.0000 C   0  0  0  0  0  0  0  0  0  0  0  0
   -6.4853    0.3861    0.0000 O   0  0  0  0  0  0  0  0  0  0  0  0
   -4.4446   -1.2218    0.0000 C   0  0  0  0  0  0  0  0  0  0  0  0
   -2.9601   -1.4367    0.0000 C   0  0  0  0  0  0  0  0  0  0  0  0
  1  2  1  0
  2  3  2  0
  3  4  1  0
  4  5  2  0
  4  6  1  0
  6  7  2  0
  7  8  1  0
  8  9  2  0
  9 10  1  0
  9 11  1  0
 11 12  2  0
  3 13  1  0
 13 14  2  0
 14 15  1  0
 15 16  2  0
 16 17  1  0
 16 18  1  0
 18 19  2  0
  7  1  1  0
 19 13  1  0
 12  6  1  0
M  END
>  <IC50>  (373) 
37.1

>  <cmpdNO>  (373) 
1114

$$$$

     RDKit          2D

 20 22  0  0  0  0  0  0  0  0999 V2000
    1.7821    1.8843    0.0000 O   0  0  0  0  0  0  0  0  0  0  0  0
    2.9044    0.8891    0.0000 C   0  0  0  0  0  0  0  0  0  0  0  0
    2.3047   -0.4858    0.0000 C   0  0  0  0  0  0  0  0  0  0  0  0
    3.1956   -1.6926    0.0000 C   0  0  0  0  0  0  0  0  0  0  0  0
    4.6861   -1.5245    0.0000 C   0  0  0  0  0  0  0  0  0  0  0  0
    5.2858   -0.1496    0.0000 C   0  0  0  0  0  0  0  0  0  0  0  0
    6.7764    0.0185    0.0000 O   0  0  0  0  0  0  0  0  0  0  0  0
    4.3950    1.0572    0.0000 C   0  0  0  0  0  0  0  0  0  0  0  0
    0.8118   -0.3403    0.0000 C   0  0  0  0  0  0  0  0  0  0  0  0
   -0.1834   -1.4626    0.0000 O   0  0  0  0  0  0  0  0  0  0  0  0
    0.4888    1.1245    0.0000 C   0  0  0  0  0  0  0  0  0  0  0  0
   -0.8861    1.7242    0.0000 C   0  0  0  0  0  0  0  0  0  0  0  0
   -2.0929    0.8334    0.0000 C   0  0  0  0  0  0  0  0  0  0  0  0
   -3.4678    1.4331    0.0000 C   0  0  0  0  0  0  0  0  0  0  0  0
   -4.6746    0.5422    0.0000 C   0  0  0  0  0  0  0  0  0  0  0  0
   -6.0495    1.1419    0.0000 O   0  0  0  0  0  0  0  0  0  0  0  0
   -4.5065   -0.9483    0.0000 C   0  0  0  0  0  0  0  0  0  0  0  0
   -5.7133   -1.8392    0.0000 O   0  0  0  0  0  0  0  0  0  0  0  0
   -3.1316   -1.5480    0.0000 C   0  0  0  0  0  0  0  0  0  0  0  0
   -1.9248   -0.6572    0.0000 C   0  0  0  0  0  0  0  0  0  0  0  0
  1  2  1  0
  2  3  2  0
  3  4  1  0
  4  5  2  0
  5  6  1  0
  6  7  1  0
  6  8  2  0
  3  9  1  0
  9 10  2  0
  9 11  1  0
 11 12  2  0
 12 13  1  0
 13 14  2  0
 14 15  1  0
 15 16  1  0
 15 17  2  0
 17 18  1  0
 17 19  1  0
 19 20  2  0
  1 11  1  0
 20 13  1  0
  8  2  1  0
M  END
>  <IC50>  (374) 
29.6

>  <cmpdNO>  (374) 
1115

$$$$

     RDKit          2D

 19 21  0  0  0  0  0  0  0  0999 V2000
    1.5273    1.8949    0.0000 O   0  0  0  0  0  0  0  0  0  0  0  0
    2.6160    0.8631    0.0000 C   0  0  0  0  0  0  0  0  0  0  0  0
    1.9711   -0.4912    0.0000 C   0  0  0  0  0  0  0  0  0  0  0  0
    2.8215   -1.7269    0.0000 C   0  0  0  0  0  0  0  0  0  0  0  0
    4.3168   -1.6082    0.0000 C   0  0  0  0  0  0  0  0  0  0  0  0
    4.9617   -0.2539    0.0000 C   0  0  0  0  0  0  0  0  0  0  0  0
    6.4570   -0.1353    0.0000 O   0  0  0  0  0  0  0  0  0  0  0  0
    4.1113    0.9817    0.0000 C   0  0  0  0  0  0  0  0  0  0  0  0
    0.4838   -0.2964    0.0000 C   0  0  0  0  0  0  0  0  0  0  0  0
   -0.5480   -1.3851    0.0000 O   0  0  0  0  0  0  0  0  0  0  0  0
    0.2095    1.1783    0.0000 C   0  0  0  0  0  0  0  0  0  0  0  0
   -1.1448    1.8232    0.0000 C   0  0  0  0  0  0  0  0  0  0  0  0
   -2.3804    0.9728    0.0000 C   0  0  0  0  0  0  0  0  0  0  0  0
   -3.7347    1.6177    0.0000 C   0  0  0  0  0  0  0  0  0  0  0  0
   -4.9703    0.7673    0.0000 C   0  0  0  0  0  0  0  0  0  0  0  0
   -4.8517   -0.7280    0.0000 C   0  0  0  0  0  0  0  0  0  0  0  0
   -6.0873   -1.5784    0.0000 O   0  0  0  0  0  0  0  0  0  0  0  0
   -3.4974   -1.3729    0.0000 C   0  0  0  0  0  0  0  0  0  0  0  0
   -2.2617   -0.5225    0.0000 C   0  0  0  0  0  0  0  0  0  0  0  0
  1  2  1  0
  2  3  2  0
  3  4  1  0
  4  5  2  0
  5  6  1  0
  6  7  1  0
  6  8  2  0
  3  9  1  0
  9 10  2  0
  9 11  1  0
 11 12  2  0
 12 13  1  0
 13 14  2  0
 14 15  1  0
 15 16  2  0
 16 17  1  0
 16 18  1  0
 18 19  2  0
  1 11  1  0
 19 13  1  0
  8  2  1  0
M  END
>  <IC50>  (375) 
22

>  <cmpdNO>  (375) 
1116

$$$$

     RDKit          2D

 20 22  0  0  0  0  0  0  0  0999 V2000
    1.3573    2.0900    0.0000 O   0  0  0  0  0  0  0  0  0  0  0  0
    2.4760    1.0908    0.0000 C   0  0  0  0  0  0  0  0  0  0  0  0
    1.8715   -0.2820    0.0000 C   0  0  0  0  0  0  0  0  0  0  0  0
    0.3791   -0.1312    0.0000 C   0  0  0  0  0  0  0  0  0  0  0  0
   -0.6201   -1.2499    0.0000 O   0  0  0  0  0  0  0  0  0  0  0  0
    0.0613    1.3348    0.0000 C   0  0  0  0  0  0  0  0  0  0  0  0
   -1.3115    1.9393    0.0000 C   0  0  0  0  0  0  0  0  0  0  0  0
   -2.5215    1.0528    0.0000 C   0  0  0  0  0  0  0  0  0  0  0  0
   -3.8942    1.6574    0.0000 C   0  0  0  0  0  0  0  0  0  0  0  0
   -5.1042    0.7708    0.0000 C   0  0  0  0  0  0  0  0  0  0  0  0
   -4.9414   -0.7203    0.0000 C   0  0  0  0  0  0  0  0  0  0  0  0
   -6.1513   -1.6069    0.0000 O   0  0  0  0  0  0  0  0  0  0  0  0
   -3.5686   -1.3249    0.0000 C   0  0  0  0  0  0  0  0  0  0  0  0
   -2.3587   -0.4384    0.0000 C   0  0  0  0  0  0  0  0  0  0  0  0
    2.7580   -1.4919    0.0000 C   0  0  0  0  0  0  0  0  0  0  0  0
    2.1534   -2.8647    0.0000 O   0  0  0  0  0  0  0  0  0  0  0  0
    4.2492   -1.3291    0.0000 C   0  0  0  0  0  0  0  0  0  0  0  0
    4.8537    0.0436    0.0000 C   0  0  0  0  0  0  0  0  0  0  0  0
    6.3449    0.2064    0.0000 O   0  0  0  0  0  0  0  0  0  0  0  0
    3.9672    1.2536    0.0000 C   0  0  0  0  0  0  0  0  0  0  0  0
  1  2  1  0
  2  3  2  0
  3  4  1  0
  4  5  2  0
  4  6  1  0
  6  7  2  0
  7  8  1  0
  8  9  2  0
  9 10  1  0
 10 11  2  0
 11 12  1  0
 11 13  1  0
 13 14  2  0
  3 15  1  0
 15 16  1  0
 15 17  2  0
 17 18  1  0
 18 19  1  0
 18 20  2  0
  1  6  1  0
 14  8  1  0
 20  2  1  0
M  END
>  <IC50>  (376) 
25.6

>  <cmpdNO>  (376) 
1117

$$$$

     RDKit          2D

 52 57  0  0  0  0  0  0  0  0999 V2000
    0.9755    0.2653    0.0000 O   0  0  0  0  0  0  0  0  0  0  0  0
   -0.2498    1.1305    0.0000 C   0  0  0  0  0  0  0  0  0  0  0  0
   -0.1131    2.6243    0.0000 C   0  0  0  0  0  0  0  0  0  0  0  0
    1.2488    3.2528    0.0000 C   0  0  0  0  0  0  0  0  0  0  0  0
    1.3855    4.7466    0.0000 O   0  0  0  0  0  0  0  0  0  0  0  0
    2.4742    2.3876    0.0000 C   0  0  0  0  0  0  0  0  0  0  0  0
    2.3375    0.8938    0.0000 C   0  0  0  0  0  0  0  0  0  0  0  0
    3.5628    0.0286    0.0000 C   0  0  0  0  0  0  0  0  0  0  0  0
    3.4262   -1.4651    0.0000 C   0  0  0  0  0  0  0  0  0  0  0  0
    4.6515   -2.3304    0.0000 C   0  0  0  0  0  0  0  0  0  0  0  0
    4.5148   -3.8241    0.0000 O   0  0  0  0  0  0  0  0  0  0  0  0
    6.0134   -1.7018    0.0000 C   0  0  0  0  0  0  0  0  0  0  0  0
    7.2388   -2.5670    0.0000 O   0  0  0  0  0  0  0  0  0  0  0  0
    6.1501   -0.2081    0.0000 C   0  0  0  0  0  0  0  0  0  0  0  0
    4.9248    0.6572    0.0000 C   0  0  0  0  0  0  0  0  0  0  0  0
   -1.3384    3.4895    0.0000 C   0  0  0  0  0  0  0  0  0  0  0  0
   -1.2018    4.9833    0.0000 O   0  0  0  0  0  0  0  0  0  0  0  0
   -2.7004    2.8610    0.0000 C   0  0  0  0  0  0  0  0  0  0  0  0
   -2.8370    1.3672    0.0000 C   0  0  0  0  0  0  0  0  0  0  0  0
   -3.8784    1.0334    0.0000 O   0  0  0  0  0  0  0  0  0  0  0  0
   -1.6117    0.5020    0.0000 C   0  0  0  0  0  0  0  0  0  0  0  0
   -1.7484   -0.9918    0.0000 C   0  0  0  0  0  0  0  0  0  0  0  0
   -3.1103   -1.6203    0.0000 N   0  0  0  0  0  0  0  0  0  0  0  0
   -3.2470   -3.1141    0.0000 C   0  0  0  0  0  0  0  0  0  0  0  0
   -4.6089   -3.7426    0.0000 C   0  0  0  0  0  0  0  0  0  0  0  0
   -5.8343   -2.8774    0.0000 O   0  0  0  0  0  0  0  0  0  0  0  0
   -5.6976   -1.3837    0.0000 C   0  0  0  0  0  0  0  0  0  0  0  0
   -4.3356   -0.7551    0.0000 C   0  0  0  0  0  0  0  0  0  0  0  0
   -4.3695    0.3379    0.0000 C   0  0  0  0  0  0  0  0  0  0  0  0
   -2.0217   -3.9793    0.0000 C   0  0  0  0  0  0  0  0  0  0  0  0
   -0.2068    8.4177    0.0000 O   0  0  0  0  0  0  0  0  0  0  0  0
   -1.6992    8.5682    0.0000 C   0  0  0  0  0  0  0  0  0  0  0  0
   -2.3151    9.9360    0.0000 C   0  0  0  0  0  0  0  0  0  0  0  0
   -1.4385   11.1532    0.0000 C   0  0  0  0  0  0  0  0  0  0  0  0
   -2.0544   12.5209    0.0000 O   0  0  0  0  0  0  0  0  0  0  0  0
    0.0539   11.0027    0.0000 C   0  0  0  0  0  0  0  0  0  0  0  0
    0.6698    9.6349    0.0000 C   0  0  0  0  0  0  0  0  0  0  0  0
    2.1622    9.4844    0.0000 C   0  0  0  0  0  0  0  0  0  0  0  0
    2.7781    8.1167    0.0000 C   0  0  0  0  0  0  0  0  0  0  0  0
    4.2705    7.9662    0.0000 C   0  0  0  0  0  0  0  0  0  0  0  0
    4.8864    6.5984    0.0000 O   0  0  0  0  0  0  0  0  0  0  0  0
    5.1471    9.1834    0.0000 C   0  0  0  0  0  0  0  0  0  0  0  0
    6.6395    9.0329    0.0000 O   0  0  0  0  0  0  0  0  0  0  0  0
    4.5312   10.5512    0.0000 C   0  0  0  0  0  0  0  0  0  0  0  0
    3.0388   10.7017    0.0000 C   0  0  0  0  0  0  0  0  0  0  0  0
   -3.8075   10.0865    0.0000 C   0  0  0  0  0  0  0  0  0  0  0  0
   -4.4234   11.4542    0.0000 O   0  0  0  0  0  0  0  0  0  0  0  0
   -4.6841    8.8692    0.0000 C   0  0  0  0  0  0  0  0  0  0  0  0
   -4.0682    7.5015    0.0000 C   0  0  0  0  0  0  0  0  0  0  0  0
   -4.9448    6.2843    0.0000 O   0  0  0  0  0  0  0  0  0  0  0  0
   -2.5758    7.3510    0.0000 C   0  0  0  0  0  0  0  0  0  0  0  0
   -1.9599    5.9833    0.0000 C   0  0  0  0  0  0  0  0  0  0  0  0
  1  2  1  0
  2  3  2  0
  3  4  1  0
  4  5  2  0
  4  6  1  0
  6  7  1  0
  7  8  1  0
  8  9  2  0
  9 10  1  0
 10 11  1  0
 10 12  2  0
 12 13  1  0
 12 14  1  0
 14 15  2  0
  3 16  1  0
 16 17  1  0
 16 18  2  0
 18 19  1  0
 19 20  1  0
 19 21  2  0
 21 22  1  0
 22 23  1  0
 23 24  1  0
 24 25  1  0
 25 26  1  0
 26 27  1  0
 27 28  1  0
 28 29  1  0
 24 30  1  0
 31 32  1  0
 32 33  2  0
 33 34  1  0
 34 35  2  0
 34 36  1  0
 36 37  1  0
 37 38  1  0
 38 39  2  0
 39 40  1  0
 40 41  1  0
 40 42  2  0
 42 43  1  0
 42 44  1  0
 44 45  2  0
 33 46  1  0
 46 47  1  0
 46 48  2  0
 48 49  1  0
 49 50  1  0
 49 51  2  0
 51 52  1  0
  7  1  1  0
 15  8  1  0
 28 23  1  0
 37 31  1  0
 45 38  1  0
 21  2  1  0
 51 32  1  0
M  END
>  <IC50>  (377) 
43.46

>  <cmpdNO>  (377) 
1118

$$$$

     RDKit          2D

 34 38  0  0  0  0  0  0  0  0999 V2000
    2.8824   -0.0325    0.0000 O   0  0  0  0  0  0  0  0  0  0  0  0
    1.8268    1.0332    0.0000 C   0  0  0  0  0  0  0  0  0  0  0  0
    2.2219    2.4802    0.0000 C   0  0  0  0  0  0  0  0  0  0  0  0
    3.6727    2.8615    0.0000 C   0  0  0  0  0  0  0  0  0  0  0  0
    4.0678    4.3085    0.0000 O   0  0  0  0  0  0  0  0  0  0  0  0
    4.7282    1.7958    0.0000 C   0  0  0  0  0  0  0  0  0  0  0  0
    4.3331    0.3488    0.0000 C   0  0  0  0  0  0  0  0  0  0  0  0
    5.3887   -0.7170    0.0000 C   0  0  0  0  0  0  0  0  0  0  0  0
    4.9935   -2.1640    0.0000 C   0  0  0  0  0  0  0  0  0  0  0  0
    6.0491   -3.2297    0.0000 C   0  0  0  0  0  0  0  0  0  0  0  0
    7.4998   -2.8484    0.0000 C   0  0  0  0  0  0  0  0  0  0  0  0
    8.5554   -3.9141    0.0000 O   0  0  0  0  0  0  0  0  0  0  0  0
    7.8950   -1.4014    0.0000 C   0  0  0  0  0  0  0  0  0  0  0  0
    6.8394   -0.3357    0.0000 C   0  0  0  0  0  0  0  0  0  0  0  0
    1.1664    3.5459    0.0000 C   0  0  0  0  0  0  0  0  0  0  0  0
    1.5615    4.9929    0.0000 O   0  0  0  0  0  0  0  0  0  0  0  0
   -0.2844    3.1646    0.0000 C   0  0  0  0  0  0  0  0  0  0  0  0
   -0.6795    1.7176    0.0000 C   0  0  0  0  0  0  0  0  0  0  0  0
   -2.1302    1.3363    0.0000 O   0  0  0  0  0  0  0  0  0  0  0  0
    0.3761    0.6519    0.0000 C   0  0  0  0  0  0  0  0  0  0  0  0
   -0.0191   -0.7951    0.0000 C   0  0  0  0  0  0  0  0  0  0  0  0
   -1.4698   -1.1764    0.0000 N   0  0  0  0  0  0  0  0  0  0  0  0
   -2.5254   -0.1107    0.0000 C   0  0  0  0  0  0  0  0  0  0  0  0
   -3.9761   -0.4920    0.0000 C   0  0  0  0  0  0  0  0  0  0  0  0
   -4.3713   -1.9390    0.0000 N   0  0  0  0  0  0  0  0  0  0  0  0
   -3.3157   -3.0047    0.0000 C   0  0  0  0  0  0  0  0  0  0  0  0
   -1.8650   -2.6234    0.0000 C   0  0  0  0  0  0  0  0  0  0  0  0
   -5.8220   -2.3203    0.0000 C   0  0  0  0  0  0  0  0  0  0  0  0
   -6.8776   -1.2546    0.0000 C   0  0  0  0  0  0  0  0  0  0  0  0
   -6.4824    0.1925    0.0000 C   0  0  0  0  0  0  0  0  0  0  0  0
   -7.5380    1.2582    0.0000 C   0  0  0  0  0  0  0  0  0  0  0  0
   -8.9887    0.8769    0.0000 C   0  0  0  0  0  0  0  0  0  0  0  0
   -9.3839   -0.5701    0.0000 C   0  0  0  0  0  0  0  0  0  0  0  0
   -8.3283   -1.6359    0.0000 C   0  0  0  0  0  0  0  0  0  0  0  0
  1  2  1  0
  2  3  2  0
  3  4  1  0
  4  5  2  0
  4  6  1  0
  6  7  1  0
  7  8  1  0
  8  9  2  0
  9 10  1  0
 10 11  2  0
 11 12  1  0
 11 13  1  0
 13 14  2  0
  3 15  1  0
 15 16  1  0
 15 17  2  0
 17 18  1  0
 18 19  1  0
 18 20  2  0
 20 21  1  0
 21 22  1  0
 22 23  1  0
 23 24  1  0
 24 25  1  0
 25 26  1  0
 26 27  1  0
 25 28  1  0
 28 29  1  0
 29 30  2  0
 30 31  1  0
 31 32  2  0
 32 33  1  0
 33 34  2  0
  7  1  1  0
 14  8  1  0
 27 22  1  0
 34 29  1  0
 20  2  1  0
M  END
>  <IC50>  (378) 
46.54

>  <cmpdNO>  (378) 
1119

$$$$

     RDKit          2D

 34 38  0  0  0  0  0  0  0  0999 V2000
    2.8824   -0.0325    0.0000 O   0  0  0  0  0  0  0  0  0  0  0  0
    1.8268    1.0332    0.0000 C   0  0  0  0  0  0  0  0  0  0  0  0
    2.2219    2.4802    0.0000 C   0  0  0  0  0  0  0  0  0  0  0  0
    3.6727    2.8615    0.0000 C   0  0  0  0  0  0  0  0  0  0  0  0
    4.0678    4.3085    0.0000 O   0  0  0  0  0  0  0  0  0  0  0  0
    4.7282    1.7958    0.0000 C   0  0  0  0  0  0  0  0  0  0  0  0
    4.3331    0.3488    0.0000 C   0  0  0  0  0  0  0  0  0  0  0  0
    5.3887   -0.7170    0.0000 C   0  0  0  0  0  0  0  0  0  0  0  0
    4.9935   -2.1640    0.0000 C   0  0  0  0  0  0  0  0  0  0  0  0
    6.0491   -3.2297    0.0000 C   0  0  0  0  0  0  0  0  0  0  0  0
    7.4998   -2.8484    0.0000 C   0  0  0  0  0  0  0  0  0  0  0  0
    8.5554   -3.9141    0.0000 O   0  0  0  0  0  0  0  0  0  0  0  0
    7.8950   -1.4014    0.0000 C   0  0  0  0  0  0  0  0  0  0  0  0
    6.8394   -0.3357    0.0000 C   0  0  0  0  0  0  0  0  0  0  0  0
    1.1664    3.5459    0.0000 C   0  0  0  0  0  0  0  0  0  0  0  0
    1.5615    4.9929    0.0000 O   0  0  0  0  0  0  0  0  0  0  0  0
   -0.2844    3.1646    0.0000 C   0  0  0  0  0  0  0  0  0  0  0  0
   -0.6795    1.7176    0.0000 C   0  0  0  0  0  0  0  0  0  0  0  0
   -2.1302    1.3363    0.0000 O   0  0  0  0  0  0  0  0  0  0  0  0
    0.3761    0.6519    0.0000 C   0  0  0  0  0  0  0  0  0  0  0  0
   -0.0191   -0.7951    0.0000 C   0  0  0  0  0  0  0  0  0  0  0  0
   -1.4698   -1.1764    0.0000 N   0  0  0  0  0  0  0  0  0  0  0  0
   -2.5254   -0.1107    0.0000 C   0  0  0  0  0  0  0  0  0  0  0  0
   -3.9761   -0.4920    0.0000 C   0  0  0  0  0  0  0  0  0  0  0  0
   -4.3713   -1.9390    0.0000 C   0  0  0  0  0  0  0  0  0  0  0  0
   -3.3157   -3.0047    0.0000 C   0  0  0  0  0  0  0  0  0  0  0  0
   -1.8650   -2.6234    0.0000 C   0  0  0  0  0  0  0  0  0  0  0  0
   -5.8220   -2.3203    0.0000 C   0  0  0  0  0  0  0  0  0  0  0  0
   -6.8776   -1.2546    0.0000 C   0  0  0  0  0  0  0  0  0  0  0  0
   -6.4824    0.1925    0.0000 C   0  0  0  0  0  0  0  0  0  0  0  0
   -7.5380    1.2582    0.0000 C   0  0  0  0  0  0  0  0  0  0  0  0
   -8.9887    0.8769    0.0000 C   0  0  0  0  0  0  0  0  0  0  0  0
   -9.3839   -0.5701    0.0000 C   0  0  0  0  0  0  0  0  0  0  0  0
   -8.3283   -1.6359    0.0000 C   0  0  0  0  0  0  0  0  0  0  0  0
  1  2  1  0
  2  3  2  0
  3  4  1  0
  4  5  2  0
  4  6  1  0
  6  7  1  0
  7  8  1  0
  8  9  2  0
  9 10  1  0
 10 11  2  0
 11 12  1  0
 11 13  1  0
 13 14  2  0
  3 15  1  0
 15 16  1  0
 15 17  2  0
 17 18  1  0
 18 19  1  0
 18 20  2  0
 20 21  1  0
 21 22  1  0
 22 23  1  0
 23 24  1  0
 24 25  1  0
 25 26  1  0
 26 27  1  0
 25 28  1  0
 28 29  1  0
 29 30  2  0
 30 31  1  0
 31 32  2  0
 32 33  1  0
 33 34  2  0
  7  1  1  0
 14  8  1  0
 27 22  1  0
 34 29  1  0
 20  2  1  0
M  END
>  <IC50>  (379) 
46.11

>  <cmpdNO>  (379) 
1120

$$$$

     RDKit          2D

 28 31  0  0  0  0  0  0  0  0999 V2000
    1.1668   -0.0410    0.0000 O   0  0  0  0  0  0  0  0  0  0  0  0
   -0.0054    0.8948    0.0000 C   0  0  0  0  0  0  0  0  0  0  0  0
    0.2189    2.3779    0.0000 C   0  0  0  0  0  0  0  0  0  0  0  0
    1.6155    2.9252    0.0000 C   0  0  0  0  0  0  0  0  0  0  0  0
    1.8399    4.4083    0.0000 O   0  0  0  0  0  0  0  0  0  0  0  0
    2.7878    1.9894    0.0000 C   0  0  0  0  0  0  0  0  0  0  0  0
    2.5634    0.5062    0.0000 C   0  0  0  0  0  0  0  0  0  0  0  0
    3.7357   -0.4296    0.0000 C   0  0  0  0  0  0  0  0  0  0  0  0
    3.5114   -1.9127    0.0000 C   0  0  0  0  0  0  0  0  0  0  0  0
    4.6836   -2.8486    0.0000 C   0  0  0  0  0  0  0  0  0  0  0  0
    6.0802   -2.3013    0.0000 C   0  0  0  0  0  0  0  0  0  0  0  0
    7.2525   -3.2371    0.0000 O   0  0  0  0  0  0  0  0  0  0  0  0
    6.3046   -0.8182    0.0000 C   0  0  0  0  0  0  0  0  0  0  0  0
    5.1323    0.1177    0.0000 C   0  0  0  0  0  0  0  0  0  0  0  0
   -0.9533    3.3138    0.0000 C   0  0  0  0  0  0  0  0  0  0  0  0
   -0.7290    4.7969    0.0000 O   0  0  0  0  0  0  0  0  0  0  0  0
   -2.3499    2.7665    0.0000 C   0  0  0  0  0  0  0  0  0  0  0  0
   -2.5743    1.2834    0.0000 C   0  0  0  0  0  0  0  0  0  0  0  0
   -3.9709    0.7361    0.0000 O   0  0  0  0  0  0  0  0  0  0  0  0
   -1.4020    0.3475    0.0000 C   0  0  0  0  0  0  0  0  0  0  0  0
   -1.6264   -1.1356    0.0000 C   0  0  0  0  0  0  0  0  0  0  0  0
   -3.0229   -1.6829    0.0000 N   0  0  0  0  0  0  0  0  0  0  0  0
   -4.1952   -0.7470    0.0000 C   0  0  0  0  0  0  0  0  0  0  0  0
   -5.5918   -1.2943    0.0000 C   0  0  0  0  0  0  0  0  0  0  0  0
   -6.7641   -0.3585    0.0000 O   0  0  0  0  0  0  0  0  0  0  0  0
   -5.8161   -2.7775    0.0000 C   0  0  0  0  0  0  0  0  0  0  0  0
   -4.6439   -3.7133    0.0000 C   0  0  0  0  0  0  0  0  0  0  0  0
   -3.2473   -3.1660    0.0000 C   0  0  0  0  0  0  0  0  0  0  0  0
  1  2  1  0
  2  3  2  0
  3  4  1  0
  4  5  2  0
  4  6  1  0
  6  7  1  0
  7  8  1  0
  8  9  2  0
  9 10  1  0
 10 11  2  0
 11 12  1  0
 11 13  1  0
 13 14  2  0
  3 15  1  0
 15 16  1  0
 15 17  2  0
 17 18  1  0
 18 19  1  0
 18 20  2  0
 20 21  1  0
 21 22  1  0
 22 23  1  0
 23 24  1  0
 24 25  1  0
 24 26  1  0
 26 27  1  0
 27 28  1  0
  7  1  1  0
 14  8  1  0
 28 22  1  0
 20  2  1  0
M  END
>  <IC50>  (380) 
45.35

>  <cmpdNO>  (380) 
1121

$$$$

     RDKit          2D

 29 32  0  0  0  0  0  0  0  0999 V2000
    1.4782   -0.0275    0.0000 O   0  0  0  0  0  0  0  0  0  0  0  0
    0.4220    1.0376    0.0000 C   0  0  0  0  0  0  0  0  0  0  0  0
    0.8164    2.4848    0.0000 C   0  0  0  0  0  0  0  0  0  0  0  0
    2.2669    2.8669    0.0000 C   0  0  0  0  0  0  0  0  0  0  0  0
    2.6613    4.3142    0.0000 O   0  0  0  0  0  0  0  0  0  0  0  0
    3.3231    1.8018    0.0000 C   0  0  0  0  0  0  0  0  0  0  0  0
    2.9287    0.3546    0.0000 C   0  0  0  0  0  0  0  0  0  0  0  0
    3.9849   -0.7106    0.0000 C   0  0  0  0  0  0  0  0  0  0  0  0
    3.5905   -2.1578    0.0000 C   0  0  0  0  0  0  0  0  0  0  0  0
    4.6467   -3.2230    0.0000 C   0  0  0  0  0  0  0  0  0  0  0  0
    6.0972   -2.8409    0.0000 C   0  0  0  0  0  0  0  0  0  0  0  0
    7.1533   -3.9060    0.0000 O   0  0  0  0  0  0  0  0  0  0  0  0
    6.4915   -1.3937    0.0000 C   0  0  0  0  0  0  0  0  0  0  0  0
    5.4354   -0.3285    0.0000 C   0  0  0  0  0  0  0  0  0  0  0  0
   -0.2398    3.5500    0.0000 C   0  0  0  0  0  0  0  0  0  0  0  0
    0.1546    4.9972    0.0000 O   0  0  0  0  0  0  0  0  0  0  0  0
   -1.6903    3.1679    0.0000 C   0  0  0  0  0  0  0  0  0  0  0  0
   -2.0846    1.7207    0.0000 C   0  0  0  0  0  0  0  0  0  0  0  0
   -3.5352    1.3386    0.0000 O   0  0  0  0  0  0  0  0  0  0  0  0
   -1.0285    0.6555    0.0000 C   0  0  0  0  0  0  0  0  0  0  0  0
   -1.4229   -0.7917    0.0000 C   0  0  0  0  0  0  0  0  0  0  0  0
   -2.8734   -1.1738    0.0000 N   0  0  0  0  0  0  0  0  0  0  0  0
   -3.9295   -0.1086    0.0000 C   0  0  0  0  0  0  0  0  0  0  0  0
   -5.3801   -0.4907    0.0000 C   0  0  0  0  0  0  0  0  0  0  0  0
   -5.7744   -1.9380    0.0000 C   0  0  0  0  0  0  0  0  0  0  0  0
   -4.7183   -3.0031    0.0000 C   0  0  0  0  0  0  0  0  0  0  0  0
   -3.2677   -2.6210    0.0000 C   0  0  0  0  0  0  0  0  0  0  0  0
   -7.2249   -2.3200    0.0000 C   0  0  0  0  0  0  0  0  0  0  0  0
   -8.2811   -1.2549    0.0000 O   0  0  0  0  0  0  0  0  0  0  0  0
  1  2  1  0
  2  3  2  0
  3  4  1  0
  4  5  2  0
  4  6  1  0
  6  7  1  0
  7  8  1  0
  8  9  2  0
  9 10  1  0
 10 11  2  0
 11 12  1  0
 11 13  1  0
 13 14  2  0
  3 15  1  0
 15 16  1  0
 15 17  2  0
 17 18  1  0
 18 19  1  0
 18 20  2  0
 20 21  1  0
 21 22  1  0
 22 23  1  0
 23 24  1  0
 24 25  1  0
 25 26  1  0
 26 27  1  0
 25 28  1  0
 28 29  1  0
  7  1  1  0
 14  8  1  0
 27 22  1  0
 20  2  1  0
M  END
>  <IC50>  (381) 
40.91

>  <cmpdNO>  (381) 
1122

$$$$

     RDKit          2D

 27 30  0  0  0  0  0  0  0  0999 V2000
    0.7364    0.1855    0.0000 O   0  0  0  0  0  0  0  0  0  0  0  0
   -0.2194    1.3415    0.0000 C   0  0  0  0  0  0  0  0  0  0  0  0
    0.3038    2.7473    0.0000 C   0  0  0  0  0  0  0  0  0  0  0  0
    1.7828    2.9971    0.0000 C   0  0  0  0  0  0  0  0  0  0  0  0
    2.3060    4.4029    0.0000 O   0  0  0  0  0  0  0  0  0  0  0  0
    2.7387    1.8411    0.0000 C   0  0  0  0  0  0  0  0  0  0  0  0
    2.2155    0.4353    0.0000 C   0  0  0  0  0  0  0  0  0  0  0  0
    3.1713   -0.7207    0.0000 C   0  0  0  0  0  0  0  0  0  0  0  0
    2.6481   -2.1265    0.0000 C   0  0  0  0  0  0  0  0  0  0  0  0
    3.6040   -3.2825    0.0000 C   0  0  0  0  0  0  0  0  0  0  0  0
    5.0830   -3.0327    0.0000 C   0  0  0  0  0  0  0  0  0  0  0  0
    6.0389   -4.1887    0.0000 O   0  0  0  0  0  0  0  0  0  0  0  0
    5.6062   -1.6269    0.0000 C   0  0  0  0  0  0  0  0  0  0  0  0
    4.6504   -0.4709    0.0000 C   0  0  0  0  0  0  0  0  0  0  0  0
   -0.6521    3.9033    0.0000 C   0  0  0  0  0  0  0  0  0  0  0  0
   -0.1289    5.3091    0.0000 O   0  0  0  0  0  0  0  0  0  0  0  0
   -2.1311    3.6535    0.0000 C   0  0  0  0  0  0  0  0  0  0  0  0
   -2.6543    2.2477    0.0000 C   0  0  0  0  0  0  0  0  0  0  0  0
   -4.1334    1.9980    0.0000 O   0  0  0  0  0  0  0  0  0  0  0  0
   -1.6985    1.0917    0.0000 C   0  0  0  0  0  0  0  0  0  0  0  0
   -2.2217   -0.3141    0.0000 C   0  0  0  0  0  0  0  0  0  0  0  0
   -3.7007   -0.5638    0.0000 N   0  0  0  0  0  0  0  0  0  0  0  0
   -4.2240   -1.9696    0.0000 C   0  0  0  0  0  0  0  0  0  0  0  0
   -3.3942   -3.2192    0.0000 C   0  0  0  0  0  0  0  0  0  0  0  0
   -4.3262   -4.3945    0.0000 C   0  0  0  0  0  0  0  0  0  0  0  0
   -5.7320   -3.8713    0.0000 C   0  0  0  0  0  0  0  0  0  0  0  0
   -5.6688   -2.3727    0.0000 C   0  0  0  0  0  0  0  0  0  0  0  0
  1  2  1  0
  2  3  2  0
  3  4  1  0
  4  5  2  0
  4  6  1  0
  6  7  1  0
  7  8  1  0
  8  9  2  0
  9 10  1  0
 10 11  2  0
 11 12  1  0
 11 13  1  0
 13 14  2  0
  3 15  1  0
 15 16  1  0
 15 17  2  0
 17 18  1  0
 18 19  1  0
 18 20  2  0
 20 21  1  0
 21 22  1  0
 22 23  1  0
 23 24  1  0
 24 25  1  0
 25 26  1  0
 26 27  1  0
  7  1  1  0
 14  8  1  0
 27 23  1  0
 20  2  1  0
M  END
>  <IC50>  (382) 
44.47

>  <cmpdNO>  (382) 
1123

$$$$

     RDKit          2D

 25 26  0  0  0  0  0  0  0  0999 V2000
   -2.4143   -3.8936    0.0000 O   0  0  0  0  0  0  0  0  0  0  0  0
   -2.7749   -2.4376    0.0000 C   0  0  0  0  0  0  0  0  0  0  0  0
   -1.8090   -1.2900    0.0000 N   0  0  0  0  0  0  0  0  0  0  0  0
   -0.3128   -1.3969    0.0000 C   0  0  0  0  0  0  0  0  0  0  0  0
    0.3427   -2.7461    0.0000 C   0  0  0  0  0  0  0  0  0  0  0  0
    1.8389   -2.8530    0.0000 C   0  0  0  0  0  0  0  0  0  0  0  0
    2.6796   -1.6107    0.0000 C   0  0  0  0  0  0  0  0  0  0  0  0
    2.0241   -0.2615    0.0000 C   0  0  0  0  0  0  0  0  0  0  0  0
    0.5279   -0.1546    0.0000 C   0  0  0  0  0  0  0  0  0  0  0  0
   -0.1276    1.1946    0.0000 N   0  0  0  0  0  0  0  0  0  0  0  0
    0.7130    2.4368    0.0000 C   0  0  0  0  0  0  0  0  0  0  0  0
    0.0575    3.7860    0.0000 C   0  0  0  0  0  0  0  0  0  0  0  0
    0.8982    5.0283    0.0000 C   0  0  0  0  0  0  0  0  0  0  0  0
    2.2092    2.3299    0.0000 C   0  0  0  0  0  0  0  0  0  0  0  0
    3.0499    3.5722    0.0000 C   0  0  0  0  0  0  0  0  0  0  0  0
    4.1757   -1.7176    0.0000 C   0  0  0  0  0  0  0  0  0  0  0  0
    4.8313   -3.0668    0.0000 O   0  0  0  0  0  0  0  0  0  0  0  0
    5.0164   -0.4754    0.0000 O   0  0  0  0  0  0  0  0  0  0  0  0
   -2.6019   -0.0167    0.0000 C   0  0  0  0  0  0  0  0  0  0  0  0
   -4.0579   -0.3774    0.0000 C   0  0  0  0  0  0  0  0  0  0  0  0
   -4.1648   -1.8736    0.0000 C   0  0  0  0  0  0  0  0  0  0  0  0
   -3.1128    1.3936    0.0000 C   0  0  0  0  0  0  0  0  0  0  0  0
   -4.5896    1.6563    0.0000 O   0  0  0  0  0  0  0  0  0  0  0  0
   -1.2528    0.6388    0.0000 C   0  0  0  0  0  0  0  0  0  0  0  0
   -1.1458    2.1350    0.0000 O   0  0  0  0  0  0  0  0  0  0  0  0
  1  2  2  0
  2  3  1  0
  3  4  1  0
  4  5  2  0
  5  6  1  0
  6  7  2  0
  7  8  1  0
  8  9  2  0
  9 10  1  0
 10 11  1  0
 11 12  1  0
 12 13  1  0
 11 14  1  0
 14 15  1  0
  7 16  1  0
 16 17  1  0
 16 18  2  0
  3 19  1  0
 19 20  1  0
 20 21  1  0
 19 22  1  0
 22 23  1  0
 19 24  1  0
 24 25  1  0
 21  2  1  0
  9  4  1  0
M  END
>  <IC50>  (383) 
0.048

>  <cmpdNO>  (383) 
1124

$$$$

     RDKit          2D

 20 20  0  0  0  0  0  0  0  0999 V2000
    1.5431    0.1435    0.0000 O   0  0  0  0  0  0  0  0  0  0  0  0
    2.0745   -1.2593    0.0000 C   0  0  0  0  0  0  0  0  0  0  0  0
    3.5550   -1.5004    0.0000 C   0  0  0  0  0  0  0  0  0  0  0  0
    4.0864   -2.9032    0.0000 C   0  0  0  0  0  0  0  0  0  0  0  0
    1.1254   -2.4208    0.0000 C   0  0  0  0  0  0  0  0  0  0  0  0
    1.6568   -3.8235    0.0000 C   0  0  0  0  0  0  0  0  0  0  0  0
    0.0627    0.3846    0.0000 C   0  0  0  0  0  0  0  0  0  0  0  0
   -0.8864   -0.7769    0.0000 C   0  0  0  0  0  0  0  0  0  0  0  0
   -2.3669   -0.5357    0.0000 C   0  0  0  0  0  0  0  0  0  0  0  0
   -2.8983    0.8670    0.0000 C   0  0  0  0  0  0  0  0  0  0  0  0
   -1.9492    2.0285    0.0000 C   0  0  0  0  0  0  0  0  0  0  0  0
   -2.4806    3.4313    0.0000 N   0  0  0  0  0  0  0  0  0  0  0  0
   -0.4687    1.7874    0.0000 C   0  0  0  0  0  0  0  0  0  0  0  0
    0.4804    2.9489    0.0000 N   0  0  0  0  0  0  0  0  0  0  0  0
    1.9609    2.7077    0.0000 C   0  0  0  0  0  0  0  0  0  0  0  0
    2.4923    1.3050    0.0000 O   0  0  0  0  0  0  0  0  0  0  0  0
    2.9100    3.8693    0.0000 C   0  0  0  0  0  0  0  0  0  0  0  0
   -3.3160   -1.6973    0.0000 C   0  0  0  0  0  0  0  0  0  0  0  0
   -4.7965   -1.4561    0.0000 O   0  0  0  0  0  0  0  0  0  0  0  0
   -2.7847   -3.1000    0.0000 O   0  0  0  0  0  0  0  0  0  0  0  0
  1  2  1  0
  2  3  1  0
  3  4  1  0
  2  5  1  0
  5  6  1  0
  1  7  1  0
  7  8  1  0
  8  9  2  0
  9 10  1  0
 10 11  1  0
 11 12  1  0
 11 13  1  0
 13 14  1  0
 14 15  1  0
 15 16  2  0
 15 17  1  0
  9 18  1  0
 18 19  1  0
 18 20  2  0
 13  7  1  0
M  END
>  <IC50>  (384) 
0.001

>  <cmpdNO>  (384) 
1125

$$$$

     RDKit          2D

 18 18  0  0  0  0  0  0  0  0999 V2000
    1.6128   -0.5678    0.0000 O   0  0  0  0  0  0  0  0  0  0  0  0
    1.8265   -2.0525    0.0000 C   0  0  0  0  0  0  0  0  0  0  0  0
    3.2191   -2.6098    0.0000 C   0  0  0  0  0  0  0  0  0  0  0  0
    3.4327   -4.0945    0.0000 C   0  0  0  0  0  0  0  0  0  0  0  0
    0.2202   -0.0104    0.0000 C   0  0  0  0  0  0  0  0  0  0  0  0
   -0.9588   -0.9378    0.0000 C   0  0  0  0  0  0  0  0  0  0  0  0
   -2.3514   -0.3804    0.0000 C   0  0  0  0  0  0  0  0  0  0  0  0
   -2.5650    1.1043    0.0000 C   0  0  0  0  0  0  0  0  0  0  0  0
   -1.3860    2.0317    0.0000 C   0  0  0  0  0  0  0  0  0  0  0  0
   -1.5996    3.5164    0.0000 N   0  0  0  0  0  0  0  0  0  0  0  0
    0.0066    1.4743    0.0000 C   0  0  0  0  0  0  0  0  0  0  0  0
    1.1856    2.4017    0.0000 N   0  0  0  0  0  0  0  0  0  0  0  0
    2.5782    1.8443    0.0000 C   0  0  0  0  0  0  0  0  0  0  0  0
    2.7918    0.3596    0.0000 O   0  0  0  0  0  0  0  0  0  0  0  0
    3.7572    2.7717    0.0000 C   0  0  0  0  0  0  0  0  0  0  0  0
   -3.5303   -1.3078    0.0000 C   0  0  0  0  0  0  0  0  0  0  0  0
   -4.9230   -0.7504    0.0000 O   0  0  0  0  0  0  0  0  0  0  0  0
   -3.3167   -2.7925    0.0000 O   0  0  0  0  0  0  0  0  0  0  0  0
  1  2  1  0
  2  3  1  0
  3  4  1  0
  1  5  1  0
  5  6  1  0
  6  7  2  0
  7  8  1  0
  8  9  1  0
  9 10  1  0
  9 11  1  0
 11 12  1  0
 12 13  1  0
 13 14  2  0
 13 15  1  0
  7 16  1  0
 16 17  1  0
 16 18  2  0
 11  5  1  0
M  END
>  <IC50>  (385) 
0.128

>  <cmpdNO>  (385) 
1126

$$$$

     RDKit          2D

 21 21  0  0  0  0  0  0  0  0999 V2000
   -5.4281    2.1617    0.0000 F   0  0  0  0  0  0  0  0  0  0  0  0
   -4.3881    1.0809    0.0000 C   0  0  0  0  0  0  0  0  0  0  0  0
   -5.4689    0.0408    0.0000 F   0  0  0  0  0  0  0  0  0  0  0  0
   -3.3072    2.1209    0.0000 F   0  0  0  0  0  0  0  0  0  0  0  0
   -3.3480    0.0000    0.0000 C   0  0  0  0  0  0  0  0  0  0  0  0
   -1.8919    0.3603    0.0000 C   0  0  0  0  0  0  0  0  0  0  0  0
   -0.8519   -0.7206    0.0000 O   0  0  0  0  0  0  0  0  0  0  0  0
    0.6042   -0.3603    0.0000 C   0  0  0  0  0  0  0  0  0  0  0  0
    1.0203    1.0809    0.0000 C   0  0  0  0  0  0  0  0  0  0  0  0
    2.4763    1.4412    0.0000 C   0  0  0  0  0  0  0  0  0  0  0  0
    3.5164    0.3603    0.0000 C   0  0  0  0  0  0  0  0  0  0  0  0
    3.1004   -1.0809    0.0000 C   0  0  0  0  0  0  0  0  0  0  0  0
    4.1404   -2.1617    0.0000 N   0  0  0  0  0  0  0  0  0  0  0  0
    1.6443   -1.4412    0.0000 C   0  0  0  0  0  0  0  0  0  0  0  0
    1.2283   -2.8823    0.0000 N   0  0  0  0  0  0  0  0  0  0  0  0
   -0.2278   -3.2426    0.0000 C   0  0  0  0  0  0  0  0  0  0  0  0
   -1.2679   -2.1617    0.0000 O   0  0  0  0  0  0  0  0  0  0  0  0
   -0.6438   -4.6837    0.0000 C   0  0  0  0  0  0  0  0  0  0  0  0
    2.8924    2.8823    0.0000 C   0  0  0  0  0  0  0  0  0  0  0  0
    4.3485    3.2426    0.0000 O   0  0  0  0  0  0  0  0  0  0  0  0
    1.8523    3.9632    0.0000 O   0  0  0  0  0  0  0  0  0  0  0  0
  1  2  1  0
  2  3  1  0
  2  4  1  0
  2  5  1  0
  5  6  1  0
  6  7  1  0
  7  8  1  0
  8  9  1  0
  9 10  2  0
 10 11  1  0
 11 12  1  0
 12 13  1  0
 12 14  1  0
 14 15  1  0
 15 16  1  0
 16 17  2  0
 16 18  1  0
 10 19  1  0
 19 20  1  0
 19 21  2  0
 14  8  1  0
M  END
>  <IC50>  (386) 
0.224

>  <cmpdNO>  (386) 
1127

$$$$

     RDKit          2D

 20 21  0  0  0  0  0  0  0  0999 V2000
   -1.5136    0.3091    0.0000 O   0  0  0  0  0  0  0  0  0  0  0  0
   -0.0167    0.4059    0.0000 C   0  0  0  0  0  0  0  0  0  0  0  0
    0.8155   -0.8420    0.0000 C   0  0  0  0  0  0  0  0  0  0  0  0
    2.3124   -0.7452    0.0000 C   0  0  0  0  0  0  0  0  0  0  0  0
    2.9770    0.5995    0.0000 C   0  0  0  0  0  0  0  0  0  0  0  0
    2.1448    1.8475    0.0000 C   0  0  0  0  0  0  0  0  0  0  0  0
    2.8094    3.1922    0.0000 N   0  0  0  0  0  0  0  0  0  0  0  0
    0.6479    1.7507    0.0000 C   0  0  0  0  0  0  0  0  0  0  0  0
   -0.1844    2.9986    0.0000 N   0  0  0  0  0  0  0  0  0  0  0  0
   -1.6813    2.9018    0.0000 C   0  0  0  0  0  0  0  0  0  0  0  0
   -2.3459    1.5571    0.0000 O   0  0  0  0  0  0  0  0  0  0  0  0
   -2.5135    4.1497    0.0000 C   0  0  0  0  0  0  0  0  0  0  0  0
    3.1447   -1.9931    0.0000 C   0  0  0  0  0  0  0  0  0  0  0  0
    2.4801   -3.3379    0.0000 O   0  0  0  0  0  0  0  0  0  0  0  0
    4.6415   -1.8963    0.0000 O   0  0  0  0  0  0  0  0  0  0  0  0
   -2.1782   -1.0356    0.0000 C   0  0  0  0  0  0  0  0  0  0  0  0
   -1.4810   -2.3637    0.0000 C   0  0  0  0  0  0  0  0  0  0  0  0
   -2.5286   -3.4372    0.0000 C   0  0  0  0  0  0  0  0  0  0  0  0
   -3.8733   -2.7726    0.0000 C   0  0  0  0  0  0  0  0  0  0  0  0
   -3.6568   -1.2883    0.0000 C   0  0  0  0  0  0  0  0  0  0  0  0
  1  2  1  0
  2  3  1  0
  3  4  2  0
  4  5  1  0
  5  6  1  0
  6  7  1  0
  6  8  1  0
  8  9  1  0
  9 10  1  0
 10 11  2  0
 10 12  1  0
  4 13  1  0
 13 14  1  0
 13 15  2  0
  1 16  1  0
 16 17  1  0
 17 18  1  0
 18 19  1  0
 19 20  1  0
  8  2  1  0
 20 16  1  0
M  END
>  <IC50>  (387) 
0.021

>  <cmpdNO>  (387) 
1128

$$$$

     RDKit          2D

 21 22  0  0  0  0  0  0  0  0999 V2000
   -1.0956    0.9251    0.0000 O   0  0  0  0  0  0  0  0  0  0  0  0
    0.3363    0.4783    0.0000 C   0  0  0  0  0  0  0  0  0  0  0  0
    0.6653   -0.9852    0.0000 C   0  0  0  0  0  0  0  0  0  0  0  0
    2.0972   -1.4320    0.0000 C   0  0  0  0  0  0  0  0  0  0  0  0
    3.2001   -0.4153    0.0000 C   0  0  0  0  0  0  0  0  0  0  0  0
    2.8711    1.0482    0.0000 C   0  0  0  0  0  0  0  0  0  0  0  0
    3.9740    2.0649    0.0000 N   0  0  0  0  0  0  0  0  0  0  0  0
    1.4392    1.4950    0.0000 C   0  0  0  0  0  0  0  0  0  0  0  0
    1.1101    2.9584    0.0000 N   0  0  0  0  0  0  0  0  0  0  0  0
   -0.3218    3.4052    0.0000 C   0  0  0  0  0  0  0  0  0  0  0  0
   -1.4247    2.3885    0.0000 O   0  0  0  0  0  0  0  0  0  0  0  0
   -0.6508    4.8687    0.0000 C   0  0  0  0  0  0  0  0  0  0  0  0
    2.4263   -2.8954    0.0000 C   0  0  0  0  0  0  0  0  0  0  0  0
    1.3234   -3.9121    0.0000 O   0  0  0  0  0  0  0  0  0  0  0  0
    3.8582   -3.3422    0.0000 O   0  0  0  0  0  0  0  0  0  0  0  0
   -2.1985   -0.0916    0.0000 C   0  0  0  0  0  0  0  0  0  0  0  0
   -3.6304    0.3551    0.0000 C   0  0  0  0  0  0  0  0  0  0  0  0
   -4.7333   -0.6615    0.0000 C   0  0  0  0  0  0  0  0  0  0  0  0
   -4.4043   -2.1250    0.0000 C   0  0  0  0  0  0  0  0  0  0  0  0
   -2.9724   -2.5718    0.0000 C   0  0  0  0  0  0  0  0  0  0  0  0
   -1.8695   -1.5551    0.0000 C   0  0  0  0  0  0  0  0  0  0  0  0
  1  2  1  0
  2  3  1  0
  3  4  2  0
  4  5  1  0
  5  6  1  0
  6  7  1  0
  6  8  1  0
  8  9  1  0
  9 10  1  0
 10 11  2  0
 10 12  1  0
  4 13  1  0
 13 14  1  0
 13 15  2  0
  1 16  1  0
 16 17  1  0
 17 18  1  0
 18 19  1  0
 19 20  1  0
 20 21  1  0
  8  2  1  0
 21 16  1  0
M  END
>  <IC50>  (388) 
0.06

>  <cmpdNO>  (388) 
1129

$$$$

     RDKit          2D

 21 22  0  0  0  0  0  0  0  0999 V2000
   -1.0956    0.9251    0.0000 O   0  0  0  0  0  0  0  0  0  0  0  0
    0.3363    0.4783    0.0000 C   0  0  0  0  0  0  0  0  0  0  0  0
    0.6653   -0.9852    0.0000 C   0  0  0  0  0  0  0  0  0  0  0  0
    2.0972   -1.4320    0.0000 C   0  0  0  0  0  0  0  0  0  0  0  0
    3.2001   -0.4153    0.0000 C   0  0  0  0  0  0  0  0  0  0  0  0
    2.8711    1.0482    0.0000 C   0  0  0  0  0  0  0  0  0  0  0  0
    3.9740    2.0649    0.0000 N   0  0  0  0  0  0  0  0  0  0  0  0
    1.4392    1.4950    0.0000 C   0  0  0  0  0  0  0  0  0  0  0  0
    1.1101    2.9584    0.0000 N   0  0  0  0  0  0  0  0  0  0  0  0
   -0.3218    3.4052    0.0000 C   0  0  0  0  0  0  0  0  0  0  0  0
   -1.4247    2.3885    0.0000 O   0  0  0  0  0  0  0  0  0  0  0  0
   -0.6508    4.8687    0.0000 C   0  0  0  0  0  0  0  0  0  0  0  0
    2.4263   -2.8954    0.0000 C   0  0  0  0  0  0  0  0  0  0  0  0
    1.3234   -3.9121    0.0000 O   0  0  0  0  0  0  0  0  0  0  0  0
    3.8582   -3.3422    0.0000 O   0  0  0  0  0  0  0  0  0  0  0  0
   -2.1985   -0.0916    0.0000 C   0  0  0  0  0  0  0  0  0  0  0  0
   -3.6304    0.3551    0.0000 C   0  0  0  0  0  0  0  0  0  0  0  0
   -4.7333   -0.6615    0.0000 C   0  0  0  0  0  0  0  0  0  0  0  0
   -4.4043   -2.1250    0.0000 C   0  0  0  0  0  0  0  0  0  0  0  0
   -2.9724   -2.5718    0.0000 C   0  0  0  0  0  0  0  0  0  0  0  0
   -1.8695   -1.5551    0.0000 C   0  0  0  0  0  0  0  0  0  0  0  0
  1  2  1  0
  2  3  1  0
  3  4  2  0
  4  5  1  0
  5  6  1  0
  6  7  1  0
  6  8  1  0
  8  9  1  0
  9 10  1  0
 10 11  2  0
 10 12  1  0
  4 13  1  0
 13 14  1  0
 13 15  2  0
  1 16  1  0
 16 17  2  0
 17 18  1  0
 18 19  2  0
 19 20  1  0
 20 21  2  0
  8  2  1  0
 21 16  1  0
M  END
>  <IC50>  (389) 
0.524

>  <cmpdNO>  (389) 
1130

$$$$

     RDKit          2D

 19 19  0  0  0  0  0  0  0  0999 V2000
    1.3858    0.1744    0.0000 O   0  0  0  0  0  0  0  0  0  0  0  0
    2.1068   -1.1410    0.0000 C   0  0  0  0  0  0  0  0  0  0  0  0
    3.6064   -1.1742    0.0000 C   0  0  0  0  0  0  0  0  0  0  0  0
    4.3274   -2.4896    0.0000 C   0  0  0  0  0  0  0  0  0  0  0  0
    5.8270   -2.5229    0.0000 C   0  0  0  0  0  0  0  0  0  0  0  0
   -0.1138    0.2077    0.0000 C   0  0  0  0  0  0  0  0  0  0  0  0
   -0.8925   -1.0744    0.0000 C   0  0  0  0  0  0  0  0  0  0  0  0
   -2.3921   -1.0411    0.0000 C   0  0  0  0  0  0  0  0  0  0  0  0
   -3.1131    0.2743    0.0000 C   0  0  0  0  0  0  0  0  0  0  0  0
   -2.3345    1.5563    0.0000 C   0  0  0  0  0  0  0  0  0  0  0  0
   -3.0555    2.8717    0.0000 N   0  0  0  0  0  0  0  0  0  0  0  0
   -0.8348    1.5230    0.0000 C   0  0  0  0  0  0  0  0  0  0  0  0
   -0.0562    2.8051    0.0000 N   0  0  0  0  0  0  0  0  0  0  0  0
    1.4434    2.7718    0.0000 C   0  0  0  0  0  0  0  0  0  0  0  0
    2.1644    1.4565    0.0000 O   0  0  0  0  0  0  0  0  0  0  0  0
    2.2221    4.0539    0.0000 C   0  0  0  0  0  0  0  0  0  0  0  0
   -3.1708   -2.3232    0.0000 C   0  0  0  0  0  0  0  0  0  0  0  0
   -4.6704   -2.2899    0.0000 O   0  0  0  0  0  0  0  0  0  0  0  0
   -2.4498   -3.6385    0.0000 O   0  0  0  0  0  0  0  0  0  0  0  0
  1  2  1  0
  2  3  1  0
  3  4  1  0
  4  5  1  0
  1  6  1  0
  6  7  1  0
  7  8  2  0
  8  9  1  0
  9 10  1  0
 10 11  1  0
 10 12  1  0
 12 13  1  0
 13 14  1  0
 14 15  2  0
 14 16  1  0
  8 17  1  0
 17 18  1  0
 17 19  2  0
 12  6  1  0
M  END
>  <IC50>  (390) 
0.302

>  <cmpdNO>  (390) 
1132

$$$$

     RDKit          2D

 20 20  0  0  0  0  0  0  0  0999 V2000
   -0.9406   -0.6080    0.0000 O   0  0  0  0  0  0  0  0  0  0  0  0
   -1.9543    0.4977    0.0000 C   0  0  0  0  0  0  0  0  0  0  0  0
   -3.4186    0.1727    0.0000 C   0  0  0  0  0  0  0  0  0  0  0  0
   -4.4323    1.2784    0.0000 C   0  0  0  0  0  0  0  0  0  0  0  0
   -5.8966    0.9534    0.0000 C   0  0  0  0  0  0  0  0  0  0  0  0
   -6.9103    2.0591    0.0000 C   0  0  0  0  0  0  0  0  0  0  0  0
    0.5237   -0.2830    0.0000 C   0  0  0  0  0  0  0  0  0  0  0  0
    0.9745    1.1477    0.0000 C   0  0  0  0  0  0  0  0  0  0  0  0
    2.4388    1.4727    0.0000 C   0  0  0  0  0  0  0  0  0  0  0  0
    3.4525    0.3671    0.0000 C   0  0  0  0  0  0  0  0  0  0  0  0
    3.0018   -1.0636    0.0000 C   0  0  0  0  0  0  0  0  0  0  0  0
    4.0154   -2.1693    0.0000 N   0  0  0  0  0  0  0  0  0  0  0  0
    1.5374   -1.3886    0.0000 C   0  0  0  0  0  0  0  0  0  0  0  0
    1.0867   -2.8193    0.0000 N   0  0  0  0  0  0  0  0  0  0  0  0
   -0.3777   -3.1443    0.0000 C   0  0  0  0  0  0  0  0  0  0  0  0
   -1.3913   -2.0386    0.0000 O   0  0  0  0  0  0  0  0  0  0  0  0
   -0.8284   -4.5750    0.0000 C   0  0  0  0  0  0  0  0  0  0  0  0
    2.8896    2.9034    0.0000 C   0  0  0  0  0  0  0  0  0  0  0  0
    4.3539    3.2284    0.0000 O   0  0  0  0  0  0  0  0  0  0  0  0
    1.8759    4.0091    0.0000 O   0  0  0  0  0  0  0  0  0  0  0  0
  1  2  1  0
  2  3  1  0
  3  4  1  0
  4  5  1  0
  5  6  1  0
  1  7  1  0
  7  8  1  0
  8  9  2  0
  9 10  1  0
 10 11  1  0
 11 12  1  0
 11 13  1  0
 13 14  1  0
 14 15  1  0
 15 16  2  0
 15 17  1  0
  9 18  1  0
 18 19  1  0
 18 20  2  0
 13  7  1  0
M  END
>  <IC50>  (391) 
0.199

>  <cmpdNO>  (391) 
1133

$$$$

     RDKit          2D

 22 21  0  0  0  0  0  0  0  0999 V2000
    0.0000    5.0997    0.0000 O   0  0  0  0  0  0  0  0  0  0  0  0
   -0.4834   -0.7326    0.0000 O   0  0  0  0  0  0  0  0  0  0  0  0
   -1.5843    0.2863    0.0000 C   0  0  0  0  0  0  0  0  0  0  0  0
   -3.0171   -0.1576    0.0000 C   0  0  0  0  0  0  0  0  0  0  0  0
   -4.1179    0.8613    0.0000 C   0  0  0  0  0  0  0  0  0  0  0  0
   -5.5507    0.4174    0.0000 C   0  0  0  0  0  0  0  0  0  0  0  0
   -6.6515    1.4364    0.0000 C   0  0  0  0  0  0  0  0  0  0  0  0
   -8.0844    0.9925    0.0000 C   0  0  0  0  0  0  0  0  0  0  0  0
    0.9494   -0.2887    0.0000 C   0  0  0  0  0  0  0  0  0  0  0  0
    1.2814    1.1741    0.0000 C   0  0  0  0  0  0  0  0  0  0  0  0
    2.7142    1.6180    0.0000 C   0  0  0  0  0  0  0  0  0  0  0  0
    3.8150    0.5991    0.0000 C   0  0  0  0  0  0  0  0  0  0  0  0
    3.4830   -0.8637    0.0000 C   0  0  0  0  0  0  0  0  0  0  0  0
    4.5839   -1.8826    0.0000 N   0  0  0  0  0  0  0  0  0  0  0  0
    2.0502   -1.3076    0.0000 C   0  0  0  0  0  0  0  0  0  0  0  0
    1.7182   -2.7704    0.0000 N   0  0  0  0  0  0  0  0  0  0  0  0
    0.2854   -3.2143    0.0000 C   0  0  0  0  0  0  0  0  0  0  0  0
   -0.8154   -2.1954    0.0000 O   0  0  0  0  0  0  0  0  0  0  0  0
   -0.0466   -4.6771    0.0000 C   0  0  0  0  0  0  0  0  0  0  0  0
    3.0462    3.0808    0.0000 C   0  0  0  0  0  0  0  0  0  0  0  0
    4.4790    3.5247    0.0000 O   0  0  0  0  0  0  0  0  0  0  0  0
    1.9454    4.0997    0.0000 O   0  0  0  0  0  0  0  0  0  0  0  0
  2  3  1  0
  3  4  1  0
  4  5  1  0
  5  6  1  0
  6  7  1  0
  7  8  1  0
  2  9  1  0
  9 10  1  0
 10 11  2  0
 11 12  1  0
 12 13  1  0
 13 14  1  0
 13 15  1  0
 15 16  1  0
 16 17  1  0
 17 18  2  0
 17 19  1  0
 11 20  1  0
 20 21  1  0
 20 22  2  0
 15  9  1  0
M  END
>  <IC50>  (392) 
0.151

>  <cmpdNO>  (392) 
1134

$$$$

     RDKit          2D

 23 22  0  0  0  0  0  0  0  0999 V2000
    0.0000    5.1662    0.0000 O   0  0  0  0  0  0  0  0  0  0  0  0
   -0.0071   -0.8266    0.0000 O   0  0  0  0  0  0  0  0  0  0  0  0
   -1.1777    0.1114    0.0000 C   0  0  0  0  0  0  0  0  0  0  0  0
   -2.5753   -0.4333    0.0000 C   0  0  0  0  0  0  0  0  0  0  0  0
   -3.7458    0.5048    0.0000 C   0  0  0  0  0  0  0  0  0  0  0  0
   -5.1434   -0.0399    0.0000 C   0  0  0  0  0  0  0  0  0  0  0  0
   -6.3139    0.8981    0.0000 C   0  0  0  0  0  0  0  0  0  0  0  0
   -7.7115    0.3534    0.0000 C   0  0  0  0  0  0  0  0  0  0  0  0
   -8.8820    1.2915    0.0000 C   0  0  0  0  0  0  0  0  0  0  0  0
    1.3905   -0.2820    0.0000 C   0  0  0  0  0  0  0  0  0  0  0  0
    1.6176    1.2008    0.0000 C   0  0  0  0  0  0  0  0  0  0  0  0
    3.0152    1.7454    0.0000 C   0  0  0  0  0  0  0  0  0  0  0  0
    4.1857    0.8074    0.0000 C   0  0  0  0  0  0  0  0  0  0  0  0
    3.9586   -0.6753    0.0000 C   0  0  0  0  0  0  0  0  0  0  0  0
    5.1291   -1.6133    0.0000 N   0  0  0  0  0  0  0  0  0  0  0  0
    2.5610   -1.2200    0.0000 C   0  0  0  0  0  0  0  0  0  0  0  0
    2.3339   -2.7027    0.0000 N   0  0  0  0  0  0  0  0  0  0  0  0
    0.9363   -3.2474    0.0000 C   0  0  0  0  0  0  0  0  0  0  0  0
   -0.2342   -2.3093    0.0000 O   0  0  0  0  0  0  0  0  0  0  0  0
    0.7092   -4.7301    0.0000 C   0  0  0  0  0  0  0  0  0  0  0  0
    3.2423    3.2281    0.0000 C   0  0  0  0  0  0  0  0  0  0  0  0
    4.6399    3.7728    0.0000 O   0  0  0  0  0  0  0  0  0  0  0  0
    2.0718    4.1662    0.0000 O   0  0  0  0  0  0  0  0  0  0  0  0
  2  3  1  0
  3  4  1  0
  4  5  1  0
  5  6  1  0
  6  7  1  0
  7  8  1  0
  8  9  1  0
  2 10  1  0
 10 11  1  0
 11 12  2  0
 12 13  1  0
 13 14  1  0
 14 15  1  0
 14 16  1  0
 16 17  1  0
 17 18  1  0
 18 19  2  0
 18 20  1  0
 12 21  1  0
 21 22  1  0
 21 23  2  0
 16 10  1  0
M  END
>  <IC50>  (393) 
0.269

>  <cmpdNO>  (393) 
1135

$$$$

     RDKit          2D

 24 23  0  0  0  0  0  0  0  0999 V2000
    0.0000    5.1857    0.0000 O   0  0  0  0  0  0  0  0  0  0  0  0
    0.4578   -0.8497    0.0000 O   0  0  0  0  0  0  0  0  0  0  0  0
   -0.7322    0.0636    0.0000 C   0  0  0  0  0  0  0  0  0  0  0  0
   -2.1181   -0.5104    0.0000 C   0  0  0  0  0  0  0  0  0  0  0  0
   -3.3080    0.4028    0.0000 C   0  0  0  0  0  0  0  0  0  0  0  0
   -4.6939   -0.1711    0.0000 C   0  0  0  0  0  0  0  0  0  0  0  0
   -5.8839    0.7421    0.0000 C   0  0  0  0  0  0  0  0  0  0  0  0
   -7.2697    0.1682    0.0000 C   0  0  0  0  0  0  0  0  0  0  0  0
   -8.4597    1.0814    0.0000 C   0  0  0  0  0  0  0  0  0  0  0  0
   -9.8455    0.5075    0.0000 C   0  0  0  0  0  0  0  0  0  0  0  0
    1.8436   -0.2757    0.0000 C   0  0  0  0  0  0  0  0  0  0  0  0
    2.0395    1.2114    0.0000 C   0  0  0  0  0  0  0  0  0  0  0  0
    3.4254    1.7854    0.0000 C   0  0  0  0  0  0  0  0  0  0  0  0
    4.6153    0.8721    0.0000 C   0  0  0  0  0  0  0  0  0  0  0  0
    4.4194   -0.6150    0.0000 C   0  0  0  0  0  0  0  0  0  0  0  0
    5.6094   -1.5282    0.0000 N   0  0  0  0  0  0  0  0  0  0  0  0
    3.0336   -1.1890    0.0000 C   0  0  0  0  0  0  0  0  0  0  0  0
    2.8377   -2.6761    0.0000 N   0  0  0  0  0  0  0  0  0  0  0  0
    1.4518   -3.2500    0.0000 C   0  0  0  0  0  0  0  0  0  0  0  0
    0.2619   -2.3368    0.0000 O   0  0  0  0  0  0  0  0  0  0  0  0
    1.2560   -4.7372    0.0000 C   0  0  0  0  0  0  0  0  0  0  0  0
    3.6213    3.2725    0.0000 C   0  0  0  0  0  0  0  0  0  0  0  0
    5.0071    3.8464    0.0000 O   0  0  0  0  0  0  0  0  0  0  0  0
    2.4313    4.1857    0.0000 O   0  0  0  0  0  0  0  0  0  0  0  0
  2  3  1  0
  3  4  1  0
  4  5  1  0
  5  6  1  0
  6  7  1  0
  7  8  1  0
  8  9  1  0
  9 10  1  0
  2 11  1  0
 11 12  1  0
 12 13  2  0
 13 14  1  0
 14 15  1  0
 15 16  1  0
 15 17  1  0
 17 18  1  0
 18 19  1  0
 19 20  2  0
 19 21  1  0
 13 22  1  0
 22 23  1  0
 22 24  2  0
 17 11  1  0
M  END
>  <IC50>  (394) 
0.182

>  <cmpdNO>  (394) 
1136

$$$$

     RDKit          2D

 26 25  0  0  0  0  0  0  0  0999 V2000
    0.0000    5.2264    0.0000 O   0  0  0  0  0  0  0  0  0  0  0  0
    1.4325   -0.8838    0.0000 O   0  0  0  0  0  0  0  0  0  0  0  0
    0.2070   -0.0189    0.0000 C   0  0  0  0  0  0  0  0  0  0  0  0
   -1.1548   -0.6477    0.0000 C   0  0  0  0  0  0  0  0  0  0  0  0
   -2.3803    0.2172    0.0000 C   0  0  0  0  0  0  0  0  0  0  0  0
   -3.7422   -0.4116    0.0000 C   0  0  0  0  0  0  0  0  0  0  0  0
   -4.9677    0.4533    0.0000 C   0  0  0  0  0  0  0  0  0  0  0  0
   -6.3295   -0.1755    0.0000 C   0  0  0  0  0  0  0  0  0  0  0  0
   -7.5550    0.6894    0.0000 C   0  0  0  0  0  0  0  0  0  0  0  0
   -8.9168    0.0606    0.0000 C   0  0  0  0  0  0  0  0  0  0  0  0
  -10.1423    0.9255    0.0000 C   0  0  0  0  0  0  0  0  0  0  0  0
  -11.5041    0.2967    0.0000 C   0  0  0  0  0  0  0  0  0  0  0  0
    2.7943   -0.2550    0.0000 C   0  0  0  0  0  0  0  0  0  0  0  0
    2.9306    1.2388    0.0000 C   0  0  0  0  0  0  0  0  0  0  0  0
    4.2924    1.8677    0.0000 C   0  0  0  0  0  0  0  0  0  0  0  0
    5.5180    1.0027    0.0000 C   0  0  0  0  0  0  0  0  0  0  0  0
    5.3816   -0.4911    0.0000 C   0  0  0  0  0  0  0  0  0  0  0  0
    6.6071   -1.3560    0.0000 N   0  0  0  0  0  0  0  0  0  0  0  0
    4.0198   -1.1199    0.0000 C   0  0  0  0  0  0  0  0  0  0  0  0
    3.8835   -2.6137    0.0000 N   0  0  0  0  0  0  0  0  0  0  0  0
    2.5217   -3.2426    0.0000 C   0  0  0  0  0  0  0  0  0  0  0  0
    1.2962   -2.3776    0.0000 O   0  0  0  0  0  0  0  0  0  0  0  0
    2.3854   -4.7364    0.0000 C   0  0  0  0  0  0  0  0  0  0  0  0
    4.4288    3.3614    0.0000 C   0  0  0  0  0  0  0  0  0  0  0  0
    5.7906    3.9903    0.0000 O   0  0  0  0  0  0  0  0  0  0  0  0
    3.2032    4.2264    0.0000 O   0  0  0  0  0  0  0  0  0  0  0  0
  2  3  1  0
  3  4  1  0
  4  5  1  0
  5  6  1  0
  6  7  1  0
  7  8  1  0
  8  9  1  0
  9 10  1  0
 10 11  1  0
 11 12  1  0
  2 13  1  0
 13 14  1  0
 14 15  2  0
 15 16  1  0
 16 17  1  0
 17 18  1  0
 17 19  1  0
 19 20  1  0
 20 21  1  0
 21 22  2  0
 21 23  1  0
 15 24  1  0
 24 25  1  0
 24 26  2  0
 19 13  1  0
M  END
>  <IC50>  (395) 
0.602

>  <cmpdNO>  (395) 
1137

$$$$

     RDKit          2D

 20 19  0  0  0  0  0  0  0  0999 V2000
    0.0000    4.3828    0.0000 O   0  0  0  0  0  0  0  0  0  0  0  0
    1.4255   -0.3251    0.0000 O   0  0  0  0  0  0  0  0  0  0  0  0
    1.8004   -1.7775    0.0000 C   0  0  0  0  0  0  0  0  0  0  0  0
    3.2457   -2.1790    0.0000 C   0  0  0  0  0  0  0  0  0  0  0  0
    3.6206   -3.6314    0.0000 C   0  0  0  0  0  0  0  0  0  0  0  0
    4.3160   -1.1282    0.0000 C   0  0  0  0  0  0  0  0  0  0  0  0
   -0.0197    0.0764    0.0000 C   0  0  0  0  0  0  0  0  0  0  0  0
   -1.0901   -0.9744    0.0000 C   0  0  0  0  0  0  0  0  0  0  0  0
   -2.5354   -0.5729    0.0000 C   0  0  0  0  0  0  0  0  0  0  0  0
   -2.9102    0.8795    0.0000 C   0  0  0  0  0  0  0  0  0  0  0  0
   -1.8399    1.9304    0.0000 C   0  0  0  0  0  0  0  0  0  0  0  0
   -2.2148    3.3828    0.0000 N   0  0  0  0  0  0  0  0  0  0  0  0
   -0.3946    1.5288    0.0000 C   0  0  0  0  0  0  0  0  0  0  0  0
    0.6757    2.5797    0.0000 N   0  0  0  0  0  0  0  0  0  0  0  0
    2.1210    2.1782    0.0000 C   0  0  0  0  0  0  0  0  0  0  0  0
    2.4959    0.7258    0.0000 O   0  0  0  0  0  0  0  0  0  0  0  0
    3.1914    3.2290    0.0000 C   0  0  0  0  0  0  0  0  0  0  0  0
   -3.6057   -1.6238    0.0000 C   0  0  0  0  0  0  0  0  0  0  0  0
   -5.0510   -1.2222    0.0000 O   0  0  0  0  0  0  0  0  0  0  0  0
   -3.2308   -3.0762    0.0000 O   0  0  0  0  0  0  0  0  0  0  0  0
  2  3  1  0
  3  4  1  0
  4  5  1  0
  4  6  1  0
  2  7  1  0
  7  8  1  0
  8  9  2  0
  9 10  1  0
 10 11  1  0
 11 12  1  0
 11 13  1  0
 13 14  1  0
 14 15  1  0
 15 16  2  0
 15 17  1  0
  9 18  1  0
 18 19  1  0
 18 20  2  0
 13  7  1  0
M  END
>  <IC50>  (396) 
0.199

>  <cmpdNO>  (396) 
1138

$$$$

     RDKit          2D

 20 19  0  0  0  0  0  0  0  0999 V2000
    0.0000    4.9644    0.0000 O   0  0  0  0  0  0  0  0  0  0  0  0
    1.5363   -0.8552    0.0000 O   0  0  0  0  0  0  0  0  0  0  0  0
    1.3262   -2.3404    0.0000 C   0  0  0  0  0  0  0  0  0  0  0  0
   -0.0651   -2.9011    0.0000 C   0  0  0  0  0  0  0  0  0  0  0  0
   -0.2752   -4.3863    0.0000 C   0  0  0  0  0  0  0  0  0  0  0  0
    2.5074   -3.2649    0.0000 C   0  0  0  0  0  0  0  0  0  0  0  0
    0.3551    0.0694    0.0000 C   0  0  0  0  0  0  0  0  0  0  0  0
   -1.0362   -0.4913    0.0000 C   0  0  0  0  0  0  0  0  0  0  0  0
   -2.2174    0.4333    0.0000 C   0  0  0  0  0  0  0  0  0  0  0  0
   -2.0073    1.9185    0.0000 C   0  0  0  0  0  0  0  0  0  0  0  0
   -0.6160    2.4791    0.0000 C   0  0  0  0  0  0  0  0  0  0  0  0
   -0.4060    3.9644    0.0000 N   0  0  0  0  0  0  0  0  0  0  0  0
    0.5652    1.5546    0.0000 C   0  0  0  0  0  0  0  0  0  0  0  0
    1.9564    2.1153    0.0000 N   0  0  0  0  0  0  0  0  0  0  0  0
    3.1376    1.1907    0.0000 C   0  0  0  0  0  0  0  0  0  0  0  0
    2.9275   -0.2945    0.0000 O   0  0  0  0  0  0  0  0  0  0  0  0
    4.5289    1.7514    0.0000 C   0  0  0  0  0  0  0  0  0  0  0  0
   -3.6087   -0.1274    0.0000 C   0  0  0  0  0  0  0  0  0  0  0  0
   -4.7899    0.7971    0.0000 O   0  0  0  0  0  0  0  0  0  0  0  0
   -3.8188   -1.6126    0.0000 O   0  0  0  0  0  0  0  0  0  0  0  0
  3  2  1  6
  3  4  1  0
  4  5  1  0
  3  6  1  0
  2  7  1  0
  7  8  1  0
  8  9  2  0
  9 10  1  0
 10 11  1  0
 11 12  1  0
 11 13  1  0
 13 14  1  0
 14 15  1  0
 15 16  2  0
 15 17  1  0
  9 18  1  0
 18 19  1  0
 18 20  2  0
 13  7  1  0
M  END
>  <IC50>  (397) 
0.01

>  <cmpdNO>  (397) 
1139

$$$$

     RDKit          2D

 20 19  0  0  0  0  0  0  0  0999 V2000
    0.0000    4.9644    0.0000 O   0  0  0  0  0  0  0  0  0  0  0  0
    1.5363   -0.8552    0.0000 O   0  0  0  0  0  0  0  0  0  0  0  0
    1.3262   -2.3404    0.0000 C   0  0  0  0  0  0  0  0  0  0  0  0
   -0.0651   -2.9011    0.0000 C   0  0  0  0  0  0  0  0  0  0  0  0
   -0.2752   -4.3863    0.0000 C   0  0  0  0  0  0  0  0  0  0  0  0
    2.5074   -3.2649    0.0000 C   0  0  0  0  0  0  0  0  0  0  0  0
    0.3551    0.0694    0.0000 C   0  0  0  0  0  0  0  0  0  0  0  0
   -1.0362   -0.4913    0.0000 C   0  0  0  0  0  0  0  0  0  0  0  0
   -2.2174    0.4333    0.0000 C   0  0  0  0  0  0  0  0  0  0  0  0
   -2.0073    1.9185    0.0000 C   0  0  0  0  0  0  0  0  0  0  0  0
   -0.6160    2.4791    0.0000 C   0  0  0  0  0  0  0  0  0  0  0  0
   -0.4060    3.9644    0.0000 N   0  0  0  0  0  0  0  0  0  0  0  0
    0.5652    1.5546    0.0000 C   0  0  0  0  0  0  0  0  0  0  0  0
    1.9564    2.1153    0.0000 N   0  0  0  0  0  0  0  0  0  0  0  0
    3.1376    1.1907    0.0000 C   0  0  0  0  0  0  0  0  0  0  0  0
    2.9275   -0.2945    0.0000 O   0  0  0  0  0  0  0  0  0  0  0  0
    4.5289    1.7514    0.0000 C   0  0  0  0  0  0  0  0  0  0  0  0
   -3.6087   -0.1274    0.0000 C   0  0  0  0  0  0  0  0  0  0  0  0
   -4.7899    0.7971    0.0000 O   0  0  0  0  0  0  0  0  0  0  0  0
   -3.8188   -1.6126    0.0000 O   0  0  0  0  0  0  0  0  0  0  0  0
  3  2  1  1
  3  4  1  0
  4  5  1  0
  3  6  1  0
  2  7  1  0
  7  8  1  0
  8  9  2  0
  9 10  1  0
 10 11  1  0
 11 12  1  0
 11 13  1  0
 13 14  1  0
 14 15  1  0
 15 16  2  0
 15 17  1  0
  9 18  1  0
 18 19  1  0
 18 20  2  0
 13  7  1  0
M  END
>  <IC50>  (398) 
0.009

>  <cmpdNO>  (398) 
1140

$$$$

     RDKit          2D

 21 20  0  0  0  0  0  0  0  0999 V2000
    0.0000    4.8693    0.0000 O   0  0  0  0  0  0  0  0  0  0  0  0
    1.5431    0.1435    0.0000 O   0  0  0  0  0  0  0  0  0  0  0  0
    2.0745   -1.2593    0.0000 C   0  0  0  0  0  0  0  0  0  0  0  0
    3.5550   -1.5004    0.0000 C   0  0  0  0  0  0  0  0  0  0  0  0
    4.0864   -2.9032    0.0000 C   0  0  0  0  0  0  0  0  0  0  0  0
    1.1254   -2.4208    0.0000 C   0  0  0  0  0  0  0  0  0  0  0  0
    1.6568   -3.8235    0.0000 C   0  0  0  0  0  0  0  0  0  0  0  0
    0.0627    0.3846    0.0000 C   0  0  0  0  0  0  0  0  0  0  0  0
   -0.8864   -0.7769    0.0000 C   0  0  0  0  0  0  0  0  0  0  0  0
   -2.3669   -0.5357    0.0000 C   0  0  0  0  0  0  0  0  0  0  0  0
   -2.8983    0.8670    0.0000 C   0  0  0  0  0  0  0  0  0  0  0  0
   -1.9492    2.0285    0.0000 C   0  0  0  0  0  0  0  0  0  0  0  0
   -2.4806    3.4313    0.0000 N   0  0  0  0  0  0  0  0  0  0  0  0
   -0.4687    1.7874    0.0000 C   0  0  0  0  0  0  0  0  0  0  0  0
    0.4804    2.9489    0.0000 N   0  0  0  0  0  0  0  0  0  0  0  0
    1.9609    2.7077    0.0000 C   0  0  0  0  0  0  0  0  0  0  0  0
    2.4923    1.3050    0.0000 O   0  0  0  0  0  0  0  0  0  0  0  0
    2.9100    3.8693    0.0000 C   0  0  0  0  0  0  0  0  0  0  0  0
   -3.3160   -1.6973    0.0000 C   0  0  0  0  0  0  0  0  0  0  0  0
   -4.7965   -1.4561    0.0000 O   0  0  0  0  0  0  0  0  0  0  0  0
   -2.7847   -3.1000    0.0000 O   0  0  0  0  0  0  0  0  0  0  0  0
  2  3  1  0
  3  4  1  0
  4  5  1  0
  3  6  1  0
  6  7  1  0
  2  8  1  0
  8  9  1  0
  9 10  2  0
 10 11  1  0
 11 12  1  0
 12 13  1  0
 12 14  1  0
 14 15  1  0
 15 16  1  0
 16 17  2  0
 16 18  1  0
 10 19  1  0
 19 20  1  0
 19 21  2  0
 14  8  1  0
M  END
>  <IC50>  (399) 
0.001

>  <cmpdNO>  (399) 
1141

$$$$

     RDKit          2D

 22 21  0  0  0  0  0  0  0  0999 V2000
    0.0000    5.0000    0.0000 O   0  0  0  0  0  0  0  0  0  0  0  0
   -0.9279   -1.2500    0.0000 O   0  0  0  0  0  0  0  0  0  0  0  0
   -2.2269   -0.5000    0.0000 C   0  0  0  0  0  0  0  0  0  0  0  0
   -2.2269    1.0000    0.0000 C   0  0  0  0  0  0  0  0  0  0  0  0
   -3.5260    1.7500    0.0000 C   0  0  0  0  0  0  0  0  0  0  0  0
   -3.5260    3.2500    0.0000 C   0  0  0  0  0  0  0  0  0  0  0  0
   -3.5260   -1.2500    0.0000 C   0  0  0  0  0  0  0  0  0  0  0  0
   -4.8250   -0.5000    0.0000 C   0  0  0  0  0  0  0  0  0  0  0  0
    0.3712   -0.5000    0.0000 C   0  0  0  0  0  0  0  0  0  0  0  0
    0.3712    1.0000    0.0000 C   0  0  0  0  0  0  0  0  0  0  0  0
    1.6702    1.7500    0.0000 C   0  0  0  0  0  0  0  0  0  0  0  0
    2.9692    1.0000    0.0000 C   0  0  0  0  0  0  0  0  0  0  0  0
    2.9692   -0.5000    0.0000 C   0  0  0  0  0  0  0  0  0  0  0  0
    4.2683   -1.2500    0.0000 N   0  0  0  0  0  0  0  0  0  0  0  0
    1.6702   -1.2500    0.0000 C   0  0  0  0  0  0  0  0  0  0  0  0
    1.6702   -2.7500    0.0000 N   0  0  0  0  0  0  0  0  0  0  0  0
    0.3712   -3.5000    0.0000 C   0  0  0  0  0  0  0  0  0  0  0  0
   -0.9279   -2.7500    0.0000 O   0  0  0  0  0  0  0  0  0  0  0  0
    0.3712   -5.0000    0.0000 C   0  0  0  0  0  0  0  0  0  0  0  0
    1.6702    3.2500    0.0000 C   0  0  0  0  0  0  0  0  0  0  0  0
    2.9692    4.0000    0.0000 O   0  0  0  0  0  0  0  0  0  0  0  0
    0.3712    4.0000    0.0000 O   0  0  0  0  0  0  0  0  0  0  0  0
  3  2  1  6
  3  4  1  0
  4  5  1  0
  5  6  2  0
  3  7  1  0
  7  8  1  0
  2  9  1  0
  9 10  1  0
 10 11  2  0
 11 12  1  0
 12 13  1  0
 13 14  1  0
 13 15  1  0
 15 16  1  0
 16 17  1  0
 17 18  2  0
 17 19  1  0
 11 20  1  0
 20 21  1  0
 20 22  2  0
 15  9  1  0
M  END
>  <IC50>  (400) 
0.001

>  <cmpdNO>  (400) 
1142

$$$$

     RDKit          2D

 22 21  0  0  0  0  0  0  0  0999 V2000
    0.0000    5.0000    0.0000 O   0  0  0  0  0  0  0  0  0  0  0  0
   -0.9279   -1.2500    0.0000 O   0  0  0  0  0  0  0  0  0  0  0  0
   -2.2269   -0.5000    0.0000 C   0  0  0  0  0  0  0  0  0  0  0  0
   -2.2269    1.0000    0.0000 C   0  0  0  0  0  0  0  0  0  0  0  0
   -3.5260    1.7500    0.0000 C   0  0  0  0  0  0  0  0  0  0  0  0
   -3.5260    3.2500    0.0000 C   0  0  0  0  0  0  0  0  0  0  0  0
   -3.5260   -1.2500    0.0000 C   0  0  0  0  0  0  0  0  0  0  0  0
   -4.8250   -0.5000    0.0000 C   0  0  0  0  0  0  0  0  0  0  0  0
    0.3712   -0.5000    0.0000 C   0  0  0  0  0  0  0  0  0  0  0  0
    0.3712    1.0000    0.0000 C   0  0  0  0  0  0  0  0  0  0  0  0
    1.6702    1.7500    0.0000 C   0  0  0  0  0  0  0  0  0  0  0  0
    2.9692    1.0000    0.0000 C   0  0  0  0  0  0  0  0  0  0  0  0
    2.9692   -0.5000    0.0000 C   0  0  0  0  0  0  0  0  0  0  0  0
    4.2683   -1.2500    0.0000 N   0  0  0  0  0  0  0  0  0  0  0  0
    1.6702   -1.2500    0.0000 C   0  0  0  0  0  0  0  0  0  0  0  0
    1.6702   -2.7500    0.0000 N   0  0  0  0  0  0  0  0  0  0  0  0
    0.3712   -3.5000    0.0000 C   0  0  0  0  0  0  0  0  0  0  0  0
   -0.9279   -2.7500    0.0000 O   0  0  0  0  0  0  0  0  0  0  0  0
    0.3712   -5.0000    0.0000 C   0  0  0  0  0  0  0  0  0  0  0  0
    1.6702    3.2500    0.0000 C   0  0  0  0  0  0  0  0  0  0  0  0
    2.9692    4.0000    0.0000 O   0  0  0  0  0  0  0  0  0  0  0  0
    0.3712    4.0000    0.0000 O   0  0  0  0  0  0  0  0  0  0  0  0
  3  2  1  1
  3  4  1  0
  4  5  1  0
  5  6  2  0
  3  7  1  0
  7  8  1  0
  2  9  1  0
  9 10  1  0
 10 11  2  0
 11 12  1  0
 12 13  1  0
 13 14  1  0
 13 15  1  0
 15 16  1  0
 16 17  1  0
 17 18  2  0
 17 19  1  0
 11 20  1  0
 20 21  1  0
 20 22  2  0
 15  9  1  0
M  END
>  <IC50>  (401) 
0.003

>  <cmpdNO>  (401) 
1143

$$$$

     RDKit          2D

 26 25  0  0  0  0  0  0  0  0999 V2000
    0.0000    5.8978    0.0000 O   0  0  0  0  0  0  0  0  0  0  0  0
    1.5611   -1.5368    0.0000 O   0  0  0  0  0  0  0  0  0  0  0  0
    0.1252   -1.9706    0.0000 C   0  0  0  0  0  0  0  0  0  0  0  0
   -0.9684   -0.9439    0.0000 C   0  0  0  0  0  0  0  0  0  0  0  0
   -2.4043   -1.3777    0.0000 C   0  0  0  0  0  0  0  0  0  0  0  0
   -3.4979   -0.3511    0.0000 C   0  0  0  0  0  0  0  0  0  0  0  0
   -4.9338   -0.7849    0.0000 C   0  0  0  0  0  0  0  0  0  0  0  0
   -6.0275    0.2418    0.0000 C   0  0  0  0  0  0  0  0  0  0  0  0
   -7.4634   -0.1920    0.0000 C   0  0  0  0  0  0  0  0  0  0  0  0
   -8.5570    0.8346    0.0000 C   0  0  0  0  0  0  0  0  0  0  0  0
   -0.2171   -3.4310    0.0000 C   0  0  0  0  0  0  0  0  0  0  0  0
   -1.6530   -3.8648    0.0000 C   0  0  0  0  0  0  0  0  0  0  0  0
    1.9034   -0.0764    0.0000 C   0  0  0  0  0  0  0  0  0  0  0  0
    0.8098    0.9503    0.0000 C   0  0  0  0  0  0  0  0  0  0  0  0
    1.1521    2.4107    0.0000 C   0  0  0  0  0  0  0  0  0  0  0  0
    2.5880    2.8445    0.0000 C   0  0  0  0  0  0  0  0  0  0  0  0
    3.6816    1.8179    0.0000 C   0  0  0  0  0  0  0  0  0  0  0  0
    5.1175    2.2516    0.0000 N   0  0  0  0  0  0  0  0  0  0  0  0
    3.3393    0.3574    0.0000 C   0  0  0  0  0  0  0  0  0  0  0  0
    4.4329   -0.6692    0.0000 N   0  0  0  0  0  0  0  0  0  0  0  0
    4.0907   -2.1296    0.0000 C   0  0  0  0  0  0  0  0  0  0  0  0
    2.6548   -2.5634    0.0000 O   0  0  0  0  0  0  0  0  0  0  0  0
    5.1843   -3.1563    0.0000 C   0  0  0  0  0  0  0  0  0  0  0  0
    0.0584    3.4374    0.0000 C   0  0  0  0  0  0  0  0  0  0  0  0
    0.4007    4.8978    0.0000 O   0  0  0  0  0  0  0  0  0  0  0  0
   -1.3775    3.0036    0.0000 O   0  0  0  0  0  0  0  0  0  0  0  0
  2  3  1  0
  3  4  1  0
  4  5  1  0
  5  6  1  0
  6  7  1  0
  7  8  1  0
  8  9  1  0
  9 10  1  0
  3 11  1  0
 11 12  1  0
  2 13  1  0
 13 14  1  0
 14 15  2  0
 15 16  1  0
 16 17  1  0
 17 18  1  0
 17 19  1  0
 19 20  1  0
 20 21  1  0
 21 22  2  0
 21 23  1  0
 15 24  1  0
 24 25  1  0
 24 26  2  0
 19 13  1  0
M  END
>  <IC50>  (402) 
0.001

>  <cmpdNO>  (402) 
1144

$$$$

     RDKit          2D

 22 22  0  0  0  0  0  0  0  0999 V2000
    4.9740    0.0000    0.0000 O   0  0  0  0  0  0  0  0  0  0  0  0
   -1.0956    0.9251    0.0000 O   0  0  0  0  0  0  0  0  0  0  0  0
    0.3363    0.4783    0.0000 C   0  0  0  0  0  0  0  0  0  0  0  0
    0.6653   -0.9852    0.0000 C   0  0  0  0  0  0  0  0  0  0  0  0
    2.0972   -1.4320    0.0000 C   0  0  0  0  0  0  0  0  0  0  0  0
    3.2001   -0.4153    0.0000 C   0  0  0  0  0  0  0  0  0  0  0  0
    2.8711    1.0482    0.0000 C   0  0  0  0  0  0  0  0  0  0  0  0
    3.9740    2.0649    0.0000 N   0  0  0  0  0  0  0  0  0  0  0  0
    1.4392    1.4950    0.0000 C   0  0  0  0  0  0  0  0  0  0  0  0
    1.1101    2.9584    0.0000 N   0  0  0  0  0  0  0  0  0  0  0  0
   -0.3218    3.4052    0.0000 C   0  0  0  0  0  0  0  0  0  0  0  0
   -1.4247    2.3885    0.0000 O   0  0  0  0  0  0  0  0  0  0  0  0
   -0.6508    4.8687    0.0000 C   0  0  0  0  0  0  0  0  0  0  0  0
    2.4263   -2.8954    0.0000 C   0  0  0  0  0  0  0  0  0  0  0  0
    1.3234   -3.9121    0.0000 O   0  0  0  0  0  0  0  0  0  0  0  0
    3.8582   -3.3422    0.0000 O   0  0  0  0  0  0  0  0  0  0  0  0
   -2.1985   -0.0916    0.0000 C   0  0  0  0  0  0  0  0  0  0  0  0
   -3.6304    0.3551    0.0000 C   0  0  0  0  0  0  0  0  0  0  0  0
   -4.7333   -0.6615    0.0000 C   0  0  0  0  0  0  0  0  0  0  0  0
   -4.4043   -2.1250    0.0000 C   0  0  0  0  0  0  0  0  0  0  0  0
   -2.9724   -2.5718    0.0000 C   0  0  0  0  0  0  0  0  0  0  0  0
   -1.8695   -1.5551    0.0000 C   0  0  0  0  0  0  0  0  0  0  0  0
  2  3  1  0
  3  4  1  0
  4  5  2  0
  5  6  1  0
  6  7  1  0
  7  8  1  0
  7  9  1  0
  9 10  1  0
 10 11  1  0
 11 12  2  0
 11 13  1  0
  5 14  1  0
 14 15  1  0
 14 16  2  0
  2 17  1  0
 17 18  2  0
 18 19  1  0
 19 20  2  0
 20 21  1  0
 21 22  2  0
  9  3  1  0
 22 17  1  0
M  END
>  <IC50>  (403) 
0.524

>  <cmpdNO>  (403) 
1145

$$$$

     RDKit          2D

 23 23  0  0  0  0  0  0  0  0999 V2000
    0.0000    4.7444    0.0000 O   0  0  0  0  0  0  0  0  0  0  0  0
    0.7430    1.0850    0.0000 O   0  0  0  0  0  0  0  0  0  0  0  0
    1.8338    0.0553    0.0000 C   0  0  0  0  0  0  0  0  0  0  0  0
    3.2709    0.4851    0.0000 C   0  0  0  0  0  0  0  0  0  0  0  0
    4.3616   -0.5446    0.0000 C   0  0  0  0  0  0  0  0  0  0  0  0
    5.7987   -0.1149    0.0000 C   0  0  0  0  0  0  0  0  0  0  0  0
    6.1451    1.3446    0.0000 C   0  0  0  0  0  0  0  0  0  0  0  0
    5.0544    2.3743    0.0000 C   0  0  0  0  0  0  0  0  0  0  0  0
    3.6173    1.9445    0.0000 C   0  0  0  0  0  0  0  0  0  0  0  0
   -0.6941    0.6553    0.0000 C   0  0  0  0  0  0  0  0  0  0  0  0
   -1.7848    1.6850    0.0000 C   0  0  0  0  0  0  0  0  0  0  0  0
   -3.2220    1.2552    0.0000 C   0  0  0  0  0  0  0  0  0  0  0  0
   -3.5683   -0.2042    0.0000 C   0  0  0  0  0  0  0  0  0  0  0  0
   -2.4776   -1.2339    0.0000 C   0  0  0  0  0  0  0  0  0  0  0  0
   -2.8240   -2.6934    0.0000 N   0  0  0  0  0  0  0  0  0  0  0  0
   -1.0405   -0.8042    0.0000 C   0  0  0  0  0  0  0  0  0  0  0  0
    0.0502   -1.8339    0.0000 N   0  0  0  0  0  0  0  0  0  0  0  0
   -0.2961   -3.2934    0.0000 C   0  0  0  0  0  0  0  0  0  0  0  0
   -1.7333   -3.7231    0.0000 O   0  0  0  0  0  0  0  0  0  0  0  0
    0.7946   -4.3231    0.0000 C   0  0  0  0  0  0  0  0  0  0  0  0
   -4.3127    2.2849    0.0000 C   0  0  0  0  0  0  0  0  0  0  0  0
   -3.9663    3.7444    0.0000 O   0  0  0  0  0  0  0  0  0  0  0  0
   -5.7498    1.8552    0.0000 O   0  0  0  0  0  0  0  0  0  0  0  0
  2  3  1  0
  3  4  1  0
  4  5  2  0
  5  6  1  0
  6  7  2  0
  7  8  1  0
  8  9  2  0
  2 10  1  0
 10 11  1  0
 11 12  2  0
 12 13  1  0
 13 14  1  0
 14 15  1  0
 14 16  1  0
 16 17  1  0
 17 18  1  0
 18 19  2  0
 18 20  1  0
 12 21  1  0
 21 22  1  0
 21 23  2  0
  9  4  1  0
 16 10  1  0
M  END
>  <IC50>  (404) 
0.617

>  <cmpdNO>  (404) 
1146

$$$$

     RDKit          2D

 27 27  0  0  0  0  0  0  0  0999 V2000
    0.0000    5.0042    0.0000 O   0  0  0  0  0  0  0  0  0  0  0  0
    0.2027    0.0467    0.0000 O   0  0  0  0  0  0  0  0  0  0  0  0
    0.9737    1.3334    0.0000 C   0  0  0  0  0  0  0  0  0  0  0  0
    2.4735    1.3090    0.0000 C   0  0  0  0  0  0  0  0  0  0  0  0
    3.2023   -0.0021    0.0000 C   0  0  0  0  0  0  0  0  0  0  0  0
    4.7021   -0.0264    0.0000 C   0  0  0  0  0  0  0  0  0  0  0  0
    5.4309   -1.3375    0.0000 C   0  0  0  0  0  0  0  0  0  0  0  0
    6.9307   -1.3618    0.0000 C   0  0  0  0  0  0  0  0  0  0  0  0
    7.7017   -0.0752    0.0000 C   0  0  0  0  0  0  0  0  0  0  0  0
    6.9729    1.2359    0.0000 C   0  0  0  0  0  0  0  0  0  0  0  0
    5.4731    1.2603    0.0000 C   0  0  0  0  0  0  0  0  0  0  0  0
    0.2449    2.6444    0.0000 C   0  0  0  0  0  0  0  0  0  0  0  0
   -1.2549    2.6688    0.0000 C   0  0  0  0  0  0  0  0  0  0  0  0
   -1.2971    0.0710    0.0000 C   0  0  0  0  0  0  0  0  0  0  0  0
   -2.0259    1.3821    0.0000 C   0  0  0  0  0  0  0  0  0  0  0  0
   -3.5257    1.4065    0.0000 C   0  0  0  0  0  0  0  0  0  0  0  0
   -4.2967    0.1198    0.0000 C   0  0  0  0  0  0  0  0  0  0  0  0
   -3.5679   -1.1913    0.0000 C   0  0  0  0  0  0  0  0  0  0  0  0
   -4.3389   -2.4780    0.0000 N   0  0  0  0  0  0  0  0  0  0  0  0
   -2.0681   -1.2156    0.0000 C   0  0  0  0  0  0  0  0  0  0  0  0
   -1.3393   -2.5267    0.0000 N   0  0  0  0  0  0  0  0  0  0  0  0
   -2.1103   -3.8134    0.0000 C   0  0  0  0  0  0  0  0  0  0  0  0
   -3.6101   -3.7890    0.0000 O   0  0  0  0  0  0  0  0  0  0  0  0
   -1.3815   -5.1244    0.0000 C   0  0  0  0  0  0  0  0  0  0  0  0
   -4.2545    2.7175    0.0000 C   0  0  0  0  0  0  0  0  0  0  0  0
   -5.7543    2.7419    0.0000 O   0  0  0  0  0  0  0  0  0  0  0  0
   -3.4835    4.0042    0.0000 O   0  0  0  0  0  0  0  0  0  0  0  0
  3  2  1  6
  3  4  1  0
  4  5  1  0
  5  6  1  0
  6  7  2  0
  7  8  1  0
  8  9  2  0
  9 10  1  0
 10 11  2  0
  3 12  1  0
 12 13  1  0
  2 14  1  0
 14 15  1  0
 15 16  2  0
 16 17  1  0
 17 18  1  0
 18 19  1  0
 18 20  1  0
 20 21  1  0
 21 22  1  0
 22 23  2  0
 22 24  1  0
 16 25  1  0
 25 26  1  0
 25 27  2  0
 11  6  1  0
 20 14  1  0
M  END
>  <IC50>  (405) 
0

>  <cmpdNO>  (405) 
1147

$$$$

     RDKit          2D

 27 27  0  0  0  0  0  0  0  0999 V2000
    0.0000    5.0042    0.0000 O   0  0  0  0  0  0  0  0  0  0  0  0
    0.2027    0.0467    0.0000 O   0  0  0  0  0  0  0  0  0  0  0  0
    0.9737    1.3334    0.0000 C   0  0  0  0  0  0  0  0  0  0  0  0
    2.4735    1.3090    0.0000 C   0  0  0  0  0  0  0  0  0  0  0  0
    3.2023   -0.0021    0.0000 C   0  0  0  0  0  0  0  0  0  0  0  0
    4.7021   -0.0264    0.0000 C   0  0  0  0  0  0  0  0  0  0  0  0
    5.4309   -1.3375    0.0000 C   0  0  0  0  0  0  0  0  0  0  0  0
    6.9307   -1.3618    0.0000 C   0  0  0  0  0  0  0  0  0  0  0  0
    7.7017   -0.0752    0.0000 C   0  0  0  0  0  0  0  0  0  0  0  0
    6.9729    1.2359    0.0000 C   0  0  0  0  0  0  0  0  0  0  0  0
    5.4731    1.2603    0.0000 C   0  0  0  0  0  0  0  0  0  0  0  0
    0.2449    2.6444    0.0000 C   0  0  0  0  0  0  0  0  0  0  0  0
   -1.2549    2.6688    0.0000 C   0  0  0  0  0  0  0  0  0  0  0  0
   -1.2971    0.0710    0.0000 C   0  0  0  0  0  0  0  0  0  0  0  0
   -2.0259    1.3821    0.0000 C   0  0  0  0  0  0  0  0  0  0  0  0
   -3.5257    1.4065    0.0000 C   0  0  0  0  0  0  0  0  0  0  0  0
   -4.2967    0.1198    0.0000 C   0  0  0  0  0  0  0  0  0  0  0  0
   -3.5679   -1.1913    0.0000 C   0  0  0  0  0  0  0  0  0  0  0  0
   -4.3389   -2.4780    0.0000 N   0  0  0  0  0  0  0  0  0  0  0  0
   -2.0681   -1.2156    0.0000 C   0  0  0  0  0  0  0  0  0  0  0  0
   -1.3393   -2.5267    0.0000 N   0  0  0  0  0  0  0  0  0  0  0  0
   -2.1103   -3.8134    0.0000 C   0  0  0  0  0  0  0  0  0  0  0  0
   -3.6101   -3.7890    0.0000 O   0  0  0  0  0  0  0  0  0  0  0  0
   -1.3815   -5.1244    0.0000 C   0  0  0  0  0  0  0  0  0  0  0  0
   -4.2545    2.7175    0.0000 C   0  0  0  0  0  0  0  0  0  0  0  0
   -5.7543    2.7419    0.0000 O   0  0  0  0  0  0  0  0  0  0  0  0
   -3.4835    4.0042    0.0000 O   0  0  0  0  0  0  0  0  0  0  0  0
  3  2  1  1
  3  4  1  0
  4  5  1  0
  5  6  1  0
  6  7  2  0
  7  8  1  0
  8  9  2  0
  9 10  1  0
 10 11  2  0
  3 12  1  0
 12 13  1  0
  2 14  1  0
 14 15  1  0
 15 16  2  0
 16 17  1  0
 17 18  1  0
 18 19  1  0
 18 20  1  0
 20 21  1  0
 21 22  1  0
 22 23  2  0
 22 24  1  0
 16 25  1  0
 25 26  1  0
 25 27  2  0
 11  6  1  0
 20 14  1  0
M  END
>  <IC50>  (406) 
0.012

>  <cmpdNO>  (406) 
1148

$$$$

     RDKit          2D

 31 31  0  0  0  0  0  0  0  0999 V2000
    0.0000    5.1481    0.0000 O   0  0  0  0  0  0  0  0  0  0  0  0
   -3.4440    1.1744    0.0000 O   0  0  0  0  0  0  0  0  0  0  0  0
   -2.4258    0.0728    0.0000 C   0  0  0  0  0  0  0  0  0  0  0  0
   -0.9628    0.4037    0.0000 C   0  0  0  0  0  0  0  0  0  0  0  0
    0.0553   -0.6978    0.0000 C   0  0  0  0  0  0  0  0  0  0  0  0
    1.5184   -0.3669    0.0000 C   0  0  0  0  0  0  0  0  0  0  0  0
    2.9814   -0.0359    0.0000 C   0  0  0  0  0  0  0  0  0  0  0  0
    4.4444    0.2950    0.0000 C   0  0  0  0  0  0  0  0  0  0  0  0
    5.4626   -0.8065    0.0000 C   0  0  0  0  0  0  0  0  0  0  0  0
    6.9256   -0.4756    0.0000 C   0  0  0  0  0  0  0  0  0  0  0  0
    8.3886   -0.1447    0.0000 C   0  0  0  0  0  0  0  0  0  0  0  0
    9.8517    0.1863    0.0000 C   0  0  0  0  0  0  0  0  0  0  0  0
   10.8698   -0.9153    0.0000 C   0  0  0  0  0  0  0  0  0  0  0  0
   12.3328   -0.5843    0.0000 C   0  0  0  0  0  0  0  0  0  0  0  0
   12.7777    0.8482    0.0000 C   0  0  0  0  0  0  0  0  0  0  0  0
   11.7596    1.9497    0.0000 C   0  0  0  0  0  0  0  0  0  0  0  0
   10.2966    1.6188    0.0000 C   0  0  0  0  0  0  0  0  0  0  0  0
   -4.9070    0.8434    0.0000 C   0  0  0  0  0  0  0  0  0  0  0  0
   -5.9251    1.9450    0.0000 C   0  0  0  0  0  0  0  0  0  0  0  0
   -7.3882    1.6140    0.0000 C   0  0  0  0  0  0  0  0  0  0  0  0
   -7.8331    0.1815    0.0000 C   0  0  0  0  0  0  0  0  0  0  0  0
   -6.8150   -0.9200    0.0000 C   0  0  0  0  0  0  0  0  0  0  0  0
   -7.2599   -2.3525    0.0000 N   0  0  0  0  0  0  0  0  0  0  0  0
   -5.3519   -0.5891    0.0000 C   0  0  0  0  0  0  0  0  0  0  0  0
   -4.3338   -1.6906    0.0000 N   0  0  0  0  0  0  0  0  0  0  0  0
   -4.7787   -3.1231    0.0000 C   0  0  0  0  0  0  0  0  0  0  0  0
   -6.2417   -3.4541    0.0000 O   0  0  0  0  0  0  0  0  0  0  0  0
   -3.7606   -4.2247    0.0000 C   0  0  0  0  0  0  0  0  0  0  0  0
   -8.4063    2.7156    0.0000 C   0  0  0  0  0  0  0  0  0  0  0  0
   -7.9614    4.1481    0.0000 O   0  0  0  0  0  0  0  0  0  0  0  0
   -9.8693    2.3847    0.0000 O   0  0  0  0  0  0  0  0  0  0  0  0
  2  3  1  0
  3  4  1  0
  4  5  1  0
  5  6  1  0
  6  7  3  0
  7  8  1  0
  8  9  2  0
  9 10  1  0
 10 11  3  0
 11 12  1  0
 12 13  2  0
 13 14  1  0
 14 15  2  0
 15 16  1  0
 16 17  2  0
  2 18  1  0
 18 19  1  0
 19 20  2  0
 20 21  1  0
 21 22  1  0
 22 23  1  0
 22 24  1  0
 24 25  1  0
 25 26  1  0
 26 27  2  0
 26 28  1  0
 20 29  1  0
 29 30  1  0
 29 31  2  0
 17 12  1  0
 24 18  1  0
M  END
>  <IC50>  (407) 
0.089

>  <cmpdNO>  (407) 
1149

$$$$

     RDKit          2D

 24 24  0  0  0  0  0  0  0  0999 V2000
   -2.2098   -4.6952    0.0000 O   0  0  0  0  0  0  0  0  0  0  0  0
   -0.9606   -3.8649    0.0000 C   0  0  0  0  0  0  0  0  0  0  0  0
    0.3831   -4.5315    0.0000 O   0  0  0  0  0  0  0  0  0  0  0  0
   -1.0551   -2.3678    0.0000 C   0  0  0  0  0  0  0  0  0  0  0  0
    0.1005   -1.4115    0.0000 C   0  0  0  0  0  0  0  0  0  0  0  0
   -0.4520   -0.0169    0.0000 C   0  0  0  0  0  0  0  0  0  0  0  0
    0.3514    1.2498    0.0000 C   0  0  0  0  0  0  0  0  0  0  0  0
   -0.3438    2.5789    0.0000 N   0  0  0  0  0  0  0  0  0  0  0  0
    0.4596    3.8456    0.0000 C   0  0  0  0  0  0  0  0  0  0  0  0
    1.9583    3.7831    0.0000 O   0  0  0  0  0  0  0  0  0  0  0  0
   -0.2356    5.1747    0.0000 C   0  0  0  0  0  0  0  0  0  0  0  0
    1.8501    1.1873    0.0000 C   0  0  0  0  0  0  0  0  0  0  0  0
    2.6536    2.4540    0.0000 O   0  0  0  0  0  0  0  0  0  0  0  0
    2.5454   -0.1419    0.0000 N   0  0  0  0  0  0  0  0  0  0  0  0
    4.0441   -0.2043    0.0000 C   0  0  0  0  0  0  0  0  0  0  0  0
    4.7393   -1.5335    0.0000 C   0  0  0  0  0  0  0  0  0  0  0  0
    6.2380   -1.5960    0.0000 C   0  0  0  0  0  0  0  0  0  0  0  0
    1.7419   -1.4085    0.0000 C   0  0  0  0  0  0  0  0  0  0  0  0
   -1.9491   -0.1114    0.0000 C   0  0  0  0  0  0  0  0  0  0  0  0
   -2.9055    1.0441    0.0000 N   0  0  0  0  0  0  0  0  0  0  0  0
   -4.3844    0.7936    0.0000 C   0  0  0  0  0  0  0  0  0  0  0  0
   -5.3408    1.9492    0.0000 N   0  0  0  0  0  0  0  0  0  0  0  0
   -4.9069   -0.6124    0.0000 N   0  0  0  0  0  0  0  0  0  0  0  0
   -2.3218   -1.5644    0.0000 C   0  0  0  0  0  0  0  0  0  0  0  0
  1  2  1  0
  2  3  2  0
  2  4  1  0
  4  5  1  0
  5  6  1  0
  6  7  1  0
  7  8  1  0
  8  9  1  0
  9 10  2  0
  9 11  1  0
  7 12  1  0
 12 13  2  0
 12 14  1  0
 14 15  1  0
 15 16  1  0
 16 17  1  0
 14 18  1  0
  6 19  1  0
 19 20  1  0
 20 21  1  0
 21 22  1  0
 21 23  2  0
 19 24  1  0
 24  4  1  0
M  END
>  <IC50>  (408) 
0.933

>  <cmpdNO>  (408) 
1150

$$$$

     RDKit          2D

 24 24  0  0  0  0  0  0  0  0999 V2000
   -2.2098   -4.6952    0.0000 O   0  0  0  0  0  0  0  0  0  0  0  0
   -0.9606   -3.8649    0.0000 C   0  0  0  0  0  0  0  0  0  0  0  0
    0.3831   -4.5315    0.0000 O   0  0  0  0  0  0  0  0  0  0  0  0
   -1.0551   -2.3678    0.0000 C   0  0  0  0  0  0  0  0  0  0  0  0
    0.1005   -1.4115    0.0000 C   0  0  0  0  0  0  0  0  0  0  0  0
   -0.4520   -0.0169    0.0000 C   0  0  0  0  0  0  0  0  0  0  0  0
    0.3514    1.2498    0.0000 C   0  0  0  0  0  0  0  0  0  0  0  0
   -0.3438    2.5789    0.0000 N   0  0  0  0  0  0  0  0  0  0  0  0
    0.4596    3.8456    0.0000 C   0  0  0  0  0  0  0  0  0  0  0  0
    1.9583    3.7831    0.0000 O   0  0  0  0  0  0  0  0  0  0  0  0
   -0.2356    5.1747    0.0000 C   0  0  0  0  0  0  0  0  0  0  0  0
    1.8501    1.1873    0.0000 C   0  0  0  0  0  0  0  0  0  0  0  0
    2.6536    2.4540    0.0000 O   0  0  0  0  0  0  0  0  0  0  0  0
    2.5454   -0.1419    0.0000 N   0  0  0  0  0  0  0  0  0  0  0  0
    4.0441   -0.2043    0.0000 C   0  0  0  0  0  0  0  0  0  0  0  0
    4.7393   -1.5335    0.0000 C   0  0  0  0  0  0  0  0  0  0  0  0
    6.2380   -1.5960    0.0000 C   0  0  0  0  0  0  0  0  0  0  0  0
    1.7419   -1.4085    0.0000 C   0  0  0  0  0  0  0  0  0  0  0  0
   -1.9491   -0.1114    0.0000 C   0  0  0  0  0  0  0  0  0  0  0  0
   -2.9055    1.0441    0.0000 N   0  0  0  0  0  0  0  0  0  0  0  0
   -4.3844    0.7936    0.0000 C   0  0  0  0  0  0  0  0  0  0  0  0
   -5.3408    1.9492    0.0000 N   0  0  0  0  0  0  0  0  0  0  0  0
   -4.9069   -0.6124    0.0000 N   0  0  0  0  0  0  0  0  0  0  0  0
   -2.3218   -1.5644    0.0000 C   0  0  0  0  0  0  0  0  0  0  0  0
  1  2  1  0
  2  3  2  0
  2  4  1  0
  4  5  1  0
  5  6  1  0
  6  7  1  0
  7  8  1  0
  8  9  1  0
  9 10  2  0
  9 11  1  0
  7 12  1  0
 12 13  2  0
 12 14  1  0
 14 15  1  0
 15 16  1  0
 16 17  2  0
 14 18  1  0
  6 19  1  0
 19 20  1  0
 20 21  1  0
 21 22  1  0
 21 23  2  0
 19 24  1  0
 24  4  1  0
M  END
>  <IC50>  (409) 
0.646

>  <cmpdNO>  (409) 
1151

$$$$

     RDKit          2D

 24 24  0  0  0  0  0  0  0  0999 V2000
   -3.4044   -3.7708    0.0000 O   0  0  0  0  0  0  0  0  0  0  0  0
   -1.9580   -3.3737    0.0000 C   0  0  0  0  0  0  0  0  0  0  0  0
   -0.8908   -4.4278    0.0000 O   0  0  0  0  0  0  0  0  0  0  0  0
   -1.5786   -1.9224    0.0000 C   0  0  0  0  0  0  0  0  0  0  0  0
   -0.1816   -1.3763    0.0000 C   0  0  0  0  0  0  0  0  0  0  0  0
   -0.2693    0.1211    0.0000 C   0  0  0  0  0  0  0  0  0  0  0  0
    0.8906    1.0722    0.0000 C   0  0  0  0  0  0  0  0  0  0  0  0
    0.6469    2.5523    0.0000 N   0  0  0  0  0  0  0  0  0  0  0  0
    1.8068    3.5034    0.0000 C   0  0  0  0  0  0  0  0  0  0  0  0
    3.2105    2.9745    0.0000 O   0  0  0  0  0  0  0  0  0  0  0  0
    1.5631    4.9835    0.0000 C   0  0  0  0  0  0  0  0  0  0  0  0
    2.2943    0.5433    0.0000 C   0  0  0  0  0  0  0  0  0  0  0  0
    3.4542    1.4944    0.0000 O   0  0  0  0  0  0  0  0  0  0  0  0
    2.5380   -0.9368    0.0000 N   0  0  0  0  0  0  0  0  0  0  0  0
    3.9417   -1.4657    0.0000 C   0  0  0  0  0  0  0  0  0  0  0  0
    4.1854   -2.9458    0.0000 C   0  0  0  0  0  0  0  0  0  0  0  0
    1.3781   -1.8879    0.0000 C   0  0  0  0  0  0  0  0  0  0  0  0
    1.6218   -3.3679    0.0000 C   0  0  0  0  0  0  0  0  0  0  0  0
   -1.7205    0.5005    0.0000 C   0  0  0  0  0  0  0  0  0  0  0  0
   -2.2666    1.8975    0.0000 N   0  0  0  0  0  0  0  0  0  0  0  0
   -3.7496    2.1231    0.0000 C   0  0  0  0  0  0  0  0  0  0  0  0
   -4.2957    3.5201    0.0000 N   0  0  0  0  0  0  0  0  0  0  0  0
   -4.6864    0.9516    0.0000 N   0  0  0  0  0  0  0  0  0  0  0  0
   -2.5297   -0.7625    0.0000 C   0  0  0  0  0  0  0  0  0  0  0  0
  1  2  1  0
  2  3  2  0
  2  4  1  0
  4  5  1  0
  5  6  1  0
  6  7  1  0
  7  8  1  0
  8  9  1  0
  9 10  2  0
  9 11  1  0
  7 12  1  0
 12 13  2  0
 12 14  1  0
 14 15  1  0
 15 16  1  0
 14 17  1  0
 17 18  1  0
  6 19  1  0
 19 20  1  0
 20 21  1  0
 21 22  1  0
 21 23  2  0
 19 24  1  0
 24  4  1  0
M  END
>  <IC50>  (410) 
0.015

>  <cmpdNO>  (410) 
1152

$$$$

     RDKit          2D

 25 25  0  0  0  0  0  0  0  0999 V2000
   -1.6562   -4.8589    0.0000 O   0  0  0  0  0  0  0  0  0  0  0  0
   -0.5328   -3.8650    0.0000 C   0  0  0  0  0  0  0  0  0  0  0  0
    0.8897   -4.3410    0.0000 O   0  0  0  0  0  0  0  0  0  0  0  0
   -0.8318   -2.3951    0.0000 C   0  0  0  0  0  0  0  0  0  0  0  0
    0.1816   -1.2892    0.0000 C   0  0  0  0  0  0  0  0  0  0  0  0
   -0.5570    0.0163    0.0000 C   0  0  0  0  0  0  0  0  0  0  0  0
    0.0650    1.3813    0.0000 C   0  0  0  0  0  0  0  0  0  0  0  0
   -0.8060    2.6024    0.0000 N   0  0  0  0  0  0  0  0  0  0  0  0
   -0.1839    3.9674    0.0000 C   0  0  0  0  0  0  0  0  0  0  0  0
    1.3092    4.1111    0.0000 O   0  0  0  0  0  0  0  0  0  0  0  0
   -1.0550    5.1886    0.0000 C   0  0  0  0  0  0  0  0  0  0  0  0
    1.5581    1.5250    0.0000 C   0  0  0  0  0  0  0  0  0  0  0  0
    2.1802    2.8899    0.0000 O   0  0  0  0  0  0  0  0  0  0  0  0
    2.4292    0.3038    0.0000 N   0  0  0  0  0  0  0  0  0  0  0  0
    3.9223    0.4476    0.0000 C   0  0  0  0  0  0  0  0  0  0  0  0
    4.7933   -0.7736    0.0000 C   0  0  0  0  0  0  0  0  0  0  0  0
    6.2864   -0.6299    0.0000 C   0  0  0  0  0  0  0  0  0  0  0  0
    1.8071   -1.0611    0.0000 C   0  0  0  0  0  0  0  0  0  0  0  0
    2.6781   -2.2823    0.0000 C   0  0  0  0  0  0  0  0  0  0  0  0
   -2.0269   -0.2827    0.0000 C   0  0  0  0  0  0  0  0  0  0  0  0
   -3.1328    0.7307    0.0000 N   0  0  0  0  0  0  0  0  0  0  0  0
   -4.5634    0.2797    0.0000 C   0  0  0  0  0  0  0  0  0  0  0  0
   -5.6693    1.2931    0.0000 N   0  0  0  0  0  0  0  0  0  0  0  0
   -4.8881   -1.1848    0.0000 N   0  0  0  0  0  0  0  0  0  0  0  0
   -2.1968   -1.7731    0.0000 C   0  0  0  0  0  0  0  0  0  0  0  0
  1  2  1  0
  2  3  2  0
  2  4  1  0
  4  5  1  0
  5  6  1  0
  6  7  1  0
  7  8  1  0
  8  9  1  0
  9 10  2  0
  9 11  1  0
  7 12  1  0
 12 13  2  0
 12 14  1  0
 14 15  1  0
 15 16  1  0
 16 17  1  0
 14 18  1  0
 18 19  1  0
  6 20  1  0
 20 21  1  0
 21 22  1  0
 22 23  1  0
 22 24  2  0
 20 25  1  0
 25  4  1  0
M  END
>  <IC50>  (411) 
0.129

>  <cmpdNO>  (411) 
1153

$$$$

     RDKit          2D

 26 26  0  0  0  0  0  0  0  0999 V2000
   -1.2767   -5.0023    0.0000 O   0  0  0  0  0  0  0  0  0  0  0  0
   -0.2956   -3.8676    0.0000 C   0  0  0  0  0  0  0  0  0  0  0  0
    1.1776   -4.1499    0.0000 O   0  0  0  0  0  0  0  0  0  0  0  0
   -0.7877   -2.4507    0.0000 C   0  0  0  0  0  0  0  0  0  0  0  0
    0.0693   -1.2197    0.0000 C   0  0  0  0  0  0  0  0  0  0  0  0
   -0.8366   -0.0241    0.0000 C   0  0  0  0  0  0  0  0  0  0  0  0
   -0.4018    1.4115    0.0000 C   0  0  0  0  0  0  0  0  0  0  0  0
   -1.4277    2.5058    0.0000 N   0  0  0  0  0  0  0  0  0  0  0  0
   -0.9930    3.9414    0.0000 C   0  0  0  0  0  0  0  0  0  0  0  0
    0.4677    4.2827    0.0000 O   0  0  0  0  0  0  0  0  0  0  0  0
   -2.0189    5.0357    0.0000 C   0  0  0  0  0  0  0  0  0  0  0  0
    1.0588    1.7528    0.0000 C   0  0  0  0  0  0  0  0  0  0  0  0
    1.4936    3.1884    0.0000 O   0  0  0  0  0  0  0  0  0  0  0  0
    2.0847    0.6585    0.0000 N   0  0  0  0  0  0  0  0  0  0  0  0
    3.5454    0.9998    0.0000 C   0  0  0  0  0  0  0  0  0  0  0  0
    4.5713   -0.0945    0.0000 C   0  0  0  0  0  0  0  0  0  0  0  0
    6.0320    0.2468    0.0000 C   0  0  0  0  0  0  0  0  0  0  0  0
    7.0579   -0.8475    0.0000 C   0  0  0  0  0  0  0  0  0  0  0  0
    1.6500   -0.7771    0.0000 C   0  0  0  0  0  0  0  0  0  0  0  0
    2.6759   -1.8714    0.0000 C   0  0  0  0  0  0  0  0  0  0  0  0
   -2.2535   -0.5162    0.0000 C   0  0  0  0  0  0  0  0  0  0  0  0
   -3.4845    0.3409    0.0000 N   0  0  0  0  0  0  0  0  0  0  0  0
   -4.8423   -0.2967    0.0000 C   0  0  0  0  0  0  0  0  0  0  0  0
   -6.0733    0.5604    0.0000 N   0  0  0  0  0  0  0  0  0  0  0  0
   -4.9691   -1.7913    0.0000 N   0  0  0  0  0  0  0  0  0  0  0  0
   -2.2234   -2.0159    0.0000 C   0  0  0  0  0  0  0  0  0  0  0  0
  1  2  1  0
  2  3  2  0
  2  4  1  0
  4  5  1  0
  5  6  1  0
  6  7  1  0
  7  8  1  0
  8  9  1  0
  9 10  2  0
  9 11  1  0
  7 12  1  0
 12 13  2  0
 12 14  1  0
 14 15  1  0
 15 16  1  0
 16 17  1  0
 17 18  1  0
 14 19  1  0
 19 20  1  0
  6 21  1  0
 21 22  1  0
 22 23  1  0
 23 24  1  0
 23 25  2  0
 21 26  1  0
 26  4  1  0
M  END
>  <IC50>  (412) 
0.427

>  <cmpdNO>  (412) 
1154

$$$$

     RDKit          2D

 29 30  0  0  0  0  0  0  0  0999 V2000
   -5.1838    3.1975    0.0000 O   0  0  0  0  0  0  0  0  0  0  0  0
   -4.8633    1.7321    0.0000 C   0  0  0  0  0  0  0  0  0  0  0  0
   -5.9720    0.7219    0.0000 O   0  0  0  0  0  0  0  0  0  0  0  0
   -3.4340    1.2771    0.0000 C   0  0  0  0  0  0  0  0  0  0  0  0
   -2.9620   -0.1467    0.0000 C   0  0  0  0  0  0  0  0  0  0  0  0
   -1.4620   -0.1379    0.0000 C   0  0  0  0  0  0  0  0  0  0  0  0
   -0.5732   -1.3461    0.0000 C   0  0  0  0  0  0  0  0  0  0  0  0
   -1.1752   -2.7200    0.0000 N   0  0  0  0  0  0  0  0  0  0  0  0
   -2.6660   -2.8857    0.0000 C   0  0  0  0  0  0  0  0  0  0  0  0
   -3.5548   -1.6774    0.0000 O   0  0  0  0  0  0  0  0  0  0  0  0
   -3.2680   -4.2596    0.0000 C   0  0  0  0  0  0  0  0  0  0  0  0
    0.9176   -1.1805    0.0000 C   0  0  0  0  0  0  0  0  0  0  0  0
    1.5196    0.1934    0.0000 O   0  0  0  0  0  0  0  0  0  0  0  0
    1.8065   -2.3888    0.0000 N   0  0  0  0  0  0  0  0  0  0  0  0
    3.2973   -2.2232    0.0000 C   0  0  0  0  0  0  0  0  0  0  0  0
    3.8993   -0.8493    0.0000 C   0  0  0  0  0  0  0  0  0  0  0  0
    5.3901   -0.6836    0.0000 C   0  0  0  0  0  0  0  0  0  0  0  0
    5.9921    0.6903    0.0000 C   0  0  0  0  0  0  0  0  0  0  0  0
    5.1033    1.8985    0.0000 C   0  0  0  0  0  0  0  0  0  0  0  0
    3.6124    1.7329    0.0000 C   0  0  0  0  0  0  0  0  0  0  0  0
    3.0104    0.3590    0.0000 C   0  0  0  0  0  0  0  0  0  0  0  0
    1.2045   -3.7627    0.0000 C   0  0  0  0  0  0  0  0  0  0  0  0
   -0.2863   -3.9283    0.0000 C   0  0  0  0  0  0  0  0  0  0  0  0
   -1.0070    1.2914    0.0000 C   0  0  0  0  0  0  0  0  0  0  0  0
    0.4168    1.7634    0.0000 N   0  0  0  0  0  0  0  0  0  0  0  0
    0.7200    3.2325    0.0000 C   0  0  0  0  0  0  0  0  0  0  0  0
    2.1438    3.7044    0.0000 N   0  0  0  0  0  0  0  0  0  0  0  0
   -0.4006    4.2295    0.0000 N   0  0  0  0  0  0  0  0  0  0  0  0
   -2.2257    2.1659    0.0000 C   0  0  0  0  0  0  0  0  0  0  0  0
  1  2  1  0
  2  3  2  0
  2  4  1  0
  4  5  1  0
  5  6  1  0
  6  7  1  0
  7  8  1  0
  8  9  1  0
  9 10  2  0
  9 11  1  0
  7 12  1  0
 12 13  2  0
 12 14  1  0
 14 15  1  0
 15 16  1  0
 16 17  2  0
 17 18  1  0
 18 19  2  0
 19 20  1  0
 20 21  2  0
 14 22  1  0
 22 23  1  0
  6 24  1  0
 24 25  1  0
 25 26  1  0
 26 27  1  0
 26 28  2  0
 24 29  1  0
 29  4  1  0
 21 16  1  0
M  END
>  <IC50>  (413) 
0.676

>  <cmpdNO>  (413) 
1155

$$$$

     RDKit          2D

 25 25  0  0  0  0  0  0  0  0999 V2000
   -1.6562   -4.8589    0.0000 O   0  0  0  0  0  0  0  0  0  0  0  0
   -0.5328   -3.8650    0.0000 C   0  0  0  0  0  0  0  0  0  0  0  0
    0.8897   -4.3410    0.0000 O   0  0  0  0  0  0  0  0  0  0  0  0
   -0.8318   -2.3951    0.0000 C   0  0  0  0  0  0  0  0  0  0  0  0
    0.1816   -1.2892    0.0000 C   0  0  0  0  0  0  0  0  0  0  0  0
   -0.5570    0.0163    0.0000 C   0  0  0  0  0  0  0  0  0  0  0  0
    0.0650    1.3813    0.0000 C   0  0  0  0  0  0  0  0  0  0  0  0
   -0.8060    2.6024    0.0000 N   0  0  0  0  0  0  0  0  0  0  0  0
   -0.1839    3.9674    0.0000 C   0  0  0  0  0  0  0  0  0  0  0  0
    1.3092    4.1111    0.0000 O   0  0  0  0  0  0  0  0  0  0  0  0
   -1.0550    5.1886    0.0000 C   0  0  0  0  0  0  0  0  0  0  0  0
    1.5581    1.5250    0.0000 C   0  0  0  0  0  0  0  0  0  0  0  0
    2.1802    2.8899    0.0000 O   0  0  0  0  0  0  0  0  0  0  0  0
    2.4292    0.3038    0.0000 N   0  0  0  0  0  0  0  0  0  0  0  0
    3.9223    0.4476    0.0000 C   0  0  0  0  0  0  0  0  0  0  0  0
    4.7933   -0.7736    0.0000 C   0  0  0  0  0  0  0  0  0  0  0  0
    6.2864   -0.6299    0.0000 O   0  0  0  0  0  0  0  0  0  0  0  0
    1.8071   -1.0611    0.0000 C   0  0  0  0  0  0  0  0  0  0  0  0
    2.6781   -2.2823    0.0000 C   0  0  0  0  0  0  0  0  0  0  0  0
   -2.0269   -0.2827    0.0000 C   0  0  0  0  0  0  0  0  0  0  0  0
   -3.1328    0.7307    0.0000 N   0  0  0  0  0  0  0  0  0  0  0  0
   -4.5634    0.2797    0.0000 C   0  0  0  0  0  0  0  0  0  0  0  0
   -5.6693    1.2931    0.0000 N   0  0  0  0  0  0  0  0  0  0  0  0
   -4.8881   -1.1848    0.0000 N   0  0  0  0  0  0  0  0  0  0  0  0
   -2.1968   -1.7731    0.0000 C   0  0  0  0  0  0  0  0  0  0  0  0
  1  2  1  0
  2  3  2  0
  2  4  1  0
  4  5  1  0
  5  6  1  0
  6  7  1  0
  7  8  1  0
  8  9  1  0
  9 10  2  0
  9 11  1  0
  7 12  1  0
 12 13  2  0
 12 14  1  0
 14 15  1  0
 15 16  1  0
 16 17  1  0
 14 18  1  0
 18 19  1  0
  6 20  1  0
 20 21  1  0
 21 22  1  0
 22 23  1  0
 22 24  2  0
 20 25  1  0
 25  4  1  0
M  END
>  <IC50>  (414) 
0.724

>  <cmpdNO>  (414) 
1156

$$$$

     RDKit          2D

 26 26  0  0  0  0  0  0  0  0999 V2000
   -0.8644   -4.9528    0.0000 O   0  0  0  0  0  0  0  0  0  0  0  0
    0.0634   -3.7741    0.0000 C   0  0  0  0  0  0  0  0  0  0  0  0
    1.5480   -3.9883    0.0000 O   0  0  0  0  0  0  0  0  0  0  0  0
   -0.4934   -2.3813    0.0000 C   0  0  0  0  0  0  0  0  0  0  0  0
    0.3061   -1.1122    0.0000 C   0  0  0  0  0  0  0  0  0  0  0  0
   -0.6539    0.0404    0.0000 C   0  0  0  0  0  0  0  0  0  0  0  0
   -0.2856    1.4945    0.0000 C   0  0  0  0  0  0  0  0  0  0  0  0
   -1.3608    2.5405    0.0000 N   0  0  0  0  0  0  0  0  0  0  0  0
   -0.9926    3.9946    0.0000 C   0  0  0  0  0  0  0  0  0  0  0  0
    0.4508    4.4028    0.0000 O   0  0  0  0  0  0  0  0  0  0  0  0
   -2.0678    5.0405    0.0000 C   0  0  0  0  0  0  0  0  0  0  0  0
    1.1578    1.9027    0.0000 C   0  0  0  0  0  0  0  0  0  0  0  0
    1.5260    3.3568    0.0000 O   0  0  0  0  0  0  0  0  0  0  0  0
    2.2329    0.8568    0.0000 N   0  0  0  0  0  0  0  0  0  0  0  0
    3.6763    1.2650    0.0000 C   0  0  0  0  0  0  0  0  0  0  0  0
    4.7515    0.2190    0.0000 C   0  0  0  0  0  0  0  0  0  0  0  0
    6.1949    0.6272    0.0000 C   0  0  0  0  0  0  0  0  0  0  0  0
    1.8647   -0.5973    0.0000 C   0  0  0  0  0  0  0  0  0  0  0  0
    2.9399   -1.6433    0.0000 C   0  0  0  0  0  0  0  0  0  0  0  0
    2.5717   -3.0974    0.0000 C   0  0  0  0  0  0  0  0  0  0  0  0
   -2.0467   -0.5164    0.0000 C   0  0  0  0  0  0  0  0  0  0  0  0
   -3.3158    0.2832    0.0000 N   0  0  0  0  0  0  0  0  0  0  0  0
   -4.6428   -0.4162    0.0000 C   0  0  0  0  0  0  0  0  0  0  0  0
   -5.9120    0.3833    0.0000 N   0  0  0  0  0  0  0  0  0  0  0  0
   -4.7007   -1.9151    0.0000 N   0  0  0  0  0  0  0  0  0  0  0  0
   -1.9475   -2.0131    0.0000 C   0  0  0  0  0  0  0  0  0  0  0  0
  1  2  1  0
  2  3  2  0
  2  4  1  0
  4  5  1  0
  5  6  1  0
  6  7  1  0
  7  8  1  0
  8  9  1  0
  9 10  2  0
  9 11  1  0
  7 12  1  0
 12 13  2  0
 12 14  1  0
 14 15  1  0
 15 16  1  0
 16 17  1  0
 14 18  1  0
 18 19  1  0
 19 20  1  0
  6 21  1  0
 21 22  1  0
 22 23  1  0
 23 24  1  0
 23 25  2  0
 21 26  1  0
 26  4  1  0
M  END
>  <IC50>  (415) 
0.06

>  <cmpdNO>  (415) 
1157

$$$$

     RDKit          2D

 24 24  0  0  0  0  0  0  0  0999 V2000
   -5.4292   -2.5283    0.0000 F   0  0  0  0  0  0  0  0  0  0  0  0
   -4.3323   -1.5052    0.0000 C   0  0  0  0  0  0  0  0  0  0  0  0
   -5.3555   -0.4083    0.0000 F   0  0  0  0  0  0  0  0  0  0  0  0
   -3.3092   -2.6020    0.0000 F   0  0  0  0  0  0  0  0  0  0  0  0
   -3.2355   -0.4820    0.0000 C   0  0  0  0  0  0  0  0  0  0  0  0
   -3.5731    0.9795    0.0000 O   0  0  0  0  0  0  0  0  0  0  0  0
   -1.8009   -0.9203    0.0000 N   0  0  0  0  0  0  0  0  0  0  0  0
   -0.7041    0.1029    0.0000 C   0  0  0  0  0  0  0  0  0  0  0  0
    0.7684   -0.1831    0.0000 N   0  0  0  0  0  0  0  0  0  0  0  0
    1.4954    1.1289    0.0000 C   0  0  0  0  0  0  0  0  0  0  0  0
    0.4722    2.2258    0.0000 C   0  0  0  0  0  0  0  0  0  0  0  0
    0.7582    3.6983    0.0000 C   0  0  0  0  0  0  0  0  0  0  0  0
    2.1764    4.1869    0.0000 O   0  0  0  0  0  0  0  0  0  0  0  0
   -0.3740    4.6822    0.0000 O   0  0  0  0  0  0  0  0  0  0  0  0
   -0.8871    1.5916    0.0000 C   0  0  0  0  0  0  0  0  0  0  0  0
   -2.1992    2.3187    0.0000 N   0  0  0  0  0  0  0  0  0  0  0  0
    1.4026   -1.5425    0.0000 C   0  0  0  0  0  0  0  0  0  0  0  0
    0.5424   -2.7713    0.0000 O   0  0  0  0  0  0  0  0  0  0  0  0
    2.8969   -1.6730    0.0000 N   0  0  0  0  0  0  0  0  0  0  0  0
    3.7570   -0.4441    0.0000 C   0  0  0  0  0  0  0  0  0  0  0  0
    5.2513   -0.5746    0.0000 C   0  0  0  0  0  0  0  0  0  0  0  0
    3.1229    0.9152    0.0000 C   0  0  0  0  0  0  0  0  0  0  0  0
    3.5310   -3.0323    0.0000 C   0  0  0  0  0  0  0  0  0  0  0  0
    5.0253   -3.1628    0.0000 C   0  0  0  0  0  0  0  0  0  0  0  0
  1  2  1  0
  2  3  1  0
  2  4  1  0
  2  5  1  0
  5  6  2  0
  5  7  1  0
  7  8  1  0
  8  9  1  0
  9 10  1  0
 10 11  1  0
 11 12  1  0
 12 13  1  0
 12 14  2  0
 11 15  1  0
 15 16  1  0
  9 17  1  0
 17 18  2  0
 17 19  1  0
 19 20  1  0
 20 21  1  0
 20 22  1  0
 19 23  1  0
 23 24  1  0
 15  8  1  0
M  END
>  <IC50>  (416) 
0.282

>  <cmpdNO>  (416) 
1158

$$$$

     RDKit          2D

 23 23  0  0  0  0  0  0  0  0999 V2000
   -0.1277   -2.7329    0.0000 O   0  0  0  0  0  0  0  0  0  0  0  0
   -0.8811   -1.4359    0.0000 C   0  0  0  0  0  0  0  0  0  0  0  0
   -0.2747   -0.0639    0.0000 C   0  0  0  0  0  0  0  0  0  0  0  0
    1.1917    0.2518    0.0000 C   0  0  0  0  0  0  0  0  0  0  0  0
    1.6514    1.6797    0.0000 N   0  0  0  0  0  0  0  0  0  0  0  0
    3.1178    1.9954    0.0000 C   0  0  0  0  0  0  0  0  0  0  0  0
    4.1245    0.8834    0.0000 O   0  0  0  0  0  0  0  0  0  0  0  0
    3.5775    3.4232    0.0000 C   0  0  0  0  0  0  0  0  0  0  0  0
    2.1984   -0.8602    0.0000 C   0  0  0  0  0  0  0  0  0  0  0  0
    3.6647   -0.5444    0.0000 C   0  0  0  0  0  0  0  0  0  0  0  0
    4.6714   -1.6565    0.0000 C   0  0  0  0  0  0  0  0  0  0  0  0
    1.7386   -2.2880    0.0000 C   0  0  0  0  0  0  0  0  0  0  0  0
    2.7453   -3.4000    0.0000 C   0  0  0  0  0  0  0  0  0  0  0  0
   -1.3921    0.9368    0.0000 C   0  0  0  0  0  0  0  0  0  0  0  0
   -1.2392    2.4290    0.0000 N   0  0  0  0  0  0  0  0  0  0  0  0
   -2.4551    3.3074    0.0000 C   0  0  0  0  0  0  0  0  0  0  0  0
   -2.3023    4.7996    0.0000 N   0  0  0  0  0  0  0  0  0  0  0  0
   -3.8238    2.6937    0.0000 N   0  0  0  0  0  0  0  0  0  0  0  0
   -2.6891    0.1833    0.0000 C   0  0  0  0  0  0  0  0  0  0  0  0
   -2.3733   -1.2830    0.0000 C   0  0  0  0  0  0  0  0  0  0  0  0
   -3.3741   -2.4004    0.0000 C   0  0  0  0  0  0  0  0  0  0  0  0
   -4.8421   -2.0925    0.0000 O   0  0  0  0  0  0  0  0  0  0  0  0
   -2.9067   -3.8258    0.0000 O   0  0  0  0  0  0  0  0  0  0  0  0
  1  2  1  0
  2  3  1  0
  3  4  1  0
  4  5  1  0
  5  6  1  0
  6  7  2  0
  6  8  1  0
  4  9  1  0
  9 10  1  0
 10 11  1  0
  9 12  1  0
 12 13  1  0
  3 14  1  0
 14 15  1  0
 15 16  1  0
 16 17  1  0
 16 18  2  0
 14 19  1  0
 19 20  1  0
 20 21  1  0
 21 22  1  0
 21 23  2  0
 20  2  1  0
M  END
>  <IC50>  (417) 
>20

>  <cmpdNO>  (417) 
1159

$$$$

     RDKit          2D

 21 21  0  0  0  0  0  0  0  0999 V2000
   -5.0157   -2.2408    0.0000 O   0  0  0  0  0  0  0  0  0  0  0  0
   -3.5604   -2.6043    0.0000 C   0  0  0  0  0  0  0  0  0  0  0  0
   -3.1475   -4.0463    0.0000 O   0  0  0  0  0  0  0  0  0  0  0  0
   -2.5179   -1.5257    0.0000 C   0  0  0  0  0  0  0  0  0  0  0  0
   -1.0326   -1.7351    0.0000 C   0  0  0  0  0  0  0  0  0  0  0  0
   -0.3745   -0.3871    0.0000 C   0  0  0  0  0  0  0  0  0  0  0  0
    1.1028   -0.1273    0.0000 C   0  0  0  0  0  0  0  0  0  0  0  0
    1.6164    1.2820    0.0000 N   0  0  0  0  0  0  0  0  0  0  0  0
    3.0938    1.5419    0.0000 C   0  0  0  0  0  0  0  0  0  0  0  0
    4.0575    0.3924    0.0000 O   0  0  0  0  0  0  0  0  0  0  0  0
    3.6074    2.9512    0.0000 C   0  0  0  0  0  0  0  0  0  0  0  0
    2.0665   -1.2767    0.0000 C   0  0  0  0  0  0  0  0  0  0  0  0
    3.5439   -1.0169    0.0000 C   0  0  0  0  0  0  0  0  0  0  0  0
    4.5076   -2.1664    0.0000 C   0  0  0  0  0  0  0  0  0  0  0  0
    5.9849   -1.9065    0.0000 C   0  0  0  0  0  0  0  0  0  0  0  0
   -1.4531    0.6553    0.0000 C   0  0  0  0  0  0  0  0  0  0  0  0
   -1.2437    2.1406    0.0000 N   0  0  0  0  0  0  0  0  0  0  0  0
   -2.4253    3.0646    0.0000 C   0  0  0  0  0  0  0  0  0  0  0  0
   -2.2159    4.5499    0.0000 N   0  0  0  0  0  0  0  0  0  0  0  0
   -3.8163    2.5033    0.0000 N   0  0  0  0  0  0  0  0  0  0  0  0
   -2.7778   -0.0484    0.0000 C   0  0  0  0  0  0  0  0  0  0  0  0
  1  2  1  0
  2  3  2  0
  2  4  1  0
  4  5  1  0
  5  6  1  0
  6  7  1  0
  7  8  1  0
  8  9  1  0
  9 10  2  0
  9 11  1  0
  7 12  1  0
 12 13  1  0
 13 14  1  0
 14 15  1  0
  6 16  1  0
 16 17  1  0
 17 18  1  0
 18 19  1  0
 18 20  2  0
 16 21  1  0
 21  4  1  0
M  END
>  <IC50>  (418) 
0.363

>  <cmpdNO>  (418) 
1160

$$$$

     RDKit          2D

 25 25  0  0  0  0  0  0  0  0999 V2000
    5.7938    0.7738    0.0000 F   0  0  0  0  0  0  0  0  0  0  0  0
    4.6978   -0.2503    0.0000 C   0  0  0  0  0  0  0  0  0  0  0  0
    5.7220   -1.3463    0.0000 F   0  0  0  0  0  0  0  0  0  0  0  0
    3.6737    0.8457    0.0000 F   0  0  0  0  0  0  0  0  0  0  0  0
    3.6019   -1.2744    0.0000 C   0  0  0  0  0  0  0  0  0  0  0  0
    3.9408   -2.7356    0.0000 O   0  0  0  0  0  0  0  0  0  0  0  0
    2.1670   -0.8373    0.0000 N   0  0  0  0  0  0  0  0  0  0  0  0
    1.0710   -1.8614    0.0000 C   0  0  0  0  0  0  0  0  0  0  0  0
   -0.3639   -1.4243    0.0000 C   0  0  0  0  0  0  0  0  0  0  0  0
   -0.8537   -0.0065    0.0000 N   0  0  0  0  0  0  0  0  0  0  0  0
   -2.3535   -0.0342    0.0000 C   0  0  0  0  0  0  0  0  0  0  0  0
   -2.7906   -1.4691    0.0000 C   0  0  0  0  0  0  0  0  0  0  0  0
   -4.2084   -1.9589    0.0000 C   0  0  0  0  0  0  0  0  0  0  0  0
   -5.3414   -0.9760    0.0000 O   0  0  0  0  0  0  0  0  0  0  0  0
   -4.4931   -3.4317    0.0000 O   0  0  0  0  0  0  0  0  0  0  0  0
   -1.5610   -2.3283    0.0000 C   0  0  0  0  0  0  0  0  0  0  0  0
   -1.5333   -3.8280    0.0000 N   0  0  0  0  0  0  0  0  0  0  0  0
    0.0054    1.2231    0.0000 C   0  0  0  0  0  0  0  0  0  0  0  0
    1.4998    1.0938    0.0000 O   0  0  0  0  0  0  0  0  0  0  0  0
   -0.6299    2.5819    0.0000 N   0  0  0  0  0  0  0  0  0  0  0  0
   -2.1243    2.7111    0.0000 C   0  0  0  0  0  0  0  0  0  0  0  0
   -2.7597    4.0699    0.0000 C   0  0  0  0  0  0  0  0  0  0  0  0
   -2.9835    1.4815    0.0000 C   0  0  0  0  0  0  0  0  0  0  0  0
    0.2292    3.8115    0.0000 C   0  0  0  0  0  0  0  0  0  0  0  0
   -0.4061    5.1703    0.0000 C   0  0  0  0  0  0  0  0  0  0  0  0
  1  2  1  0
  2  3  1  0
  2  4  1  0
  2  5  1  0
  5  6  2  0
  5  7  1  0
  7  8  1  0
  8  9  1  0
  9 10  1  0
 10 11  1  0
 11 12  1  0
 12 13  1  0
 13 14  1  0
 13 15  2  0
 12 16  1  0
 16 17  1  0
 10 18  1  0
 18 19  2  0
 18 20  1  0
 20 21  1  0
 21 22  1  0
 21 23  1  0
 20 24  1  0
 24 25  1  0
 16  9  1  0
M  END
>  <IC50>  (419) 
0.741

>  <cmpdNO>  (419) 
1162

$$$$

     RDKit          2D

 21 21  0  0  0  0  0  0  0  0999 V2000
    0.9919    0.5811    0.0000 O   0  0  0  0  0  0  0  0  0  0  0  0
   -0.0507   -0.4974    0.0000 C   0  0  0  0  0  0  0  0  0  0  0  0
    0.3621   -1.9395    0.0000 C   0  0  0  0  0  0  0  0  0  0  0  0
   -0.6804   -3.0180    0.0000 O   0  0  0  0  0  0  0  0  0  0  0  0
    1.8174   -2.3031    0.0000 N   0  0  0  0  0  0  0  0  0  0  0  0
    2.8599   -1.2246    0.0000 C   0  0  0  0  0  0  0  0  0  0  0  0
    4.3152   -1.5882    0.0000 C   0  0  0  0  0  0  0  0  0  0  0  0
    5.3577   -0.5097    0.0000 C   0  0  0  0  0  0  0  0  0  0  0  0
    2.2301   -3.7452    0.0000 C   0  0  0  0  0  0  0  0  0  0  0  0
   -1.5059   -0.1338    0.0000 C   0  0  0  0  0  0  0  0  0  0  0  0
   -2.5484   -1.2124    0.0000 N   0  0  0  0  0  0  0  0  0  0  0  0
   -4.0037   -0.8488    0.0000 C   0  0  0  0  0  0  0  0  0  0  0  0
   -4.4165    0.5933    0.0000 O   0  0  0  0  0  0  0  0  0  0  0  0
   -5.0462   -1.9273    0.0000 C   0  0  0  0  0  0  0  0  0  0  0  0
   -1.9187    1.3082    0.0000 C   0  0  0  0  0  0  0  0  0  0  0  0
   -3.3740    1.6718    0.0000 N   0  0  0  0  0  0  0  0  0  0  0  0
   -0.8762    2.3868    0.0000 C   0  0  0  0  0  0  0  0  0  0  0  0
    0.5791    2.0232    0.0000 C   0  0  0  0  0  0  0  0  0  0  0  0
    1.6216    3.1017    0.0000 C   0  0  0  0  0  0  0  0  0  0  0  0
    3.0769    2.7381    0.0000 O   0  0  0  0  0  0  0  0  0  0  0  0
    1.2088    4.5438    0.0000 O   0  0  0  0  0  0  0  0  0  0  0  0
  1  2  1  0
  2  3  1  0
  3  4  2  0
  3  5  1  0
  5  6  1  0
  6  7  1  0
  7  8  1  0
  5  9  1  0
  2 10  1  0
 10 11  1  0
 11 12  1  0
 12 13  2  0
 12 14  1  0
 10 15  1  0
 15 16  1  0
 15 17  1  0
 17 18  2  0
 18 19  1  0
 19 20  1  0
 19 21  2  0
 18  1  1  0
M  END
>  <IC50>  (420) 
0.087

>  <cmpdNO>  (420) 
1164

$$$$

     RDKit          2D

 23 23  0  0  0  0  0  0  0  0999 V2000
   -0.1455   -1.1866    0.0000 O   0  0  0  0  0  0  0  0  0  0  0  0
    0.3152    0.2409    0.0000 C   0  0  0  0  0  0  0  0  0  0  0  0
   -0.6908    1.3537    0.0000 C   0  0  0  0  0  0  0  0  0  0  0  0
   -0.2301    2.7812    0.0000 O   0  0  0  0  0  0  0  0  0  0  0  0
   -2.1574    1.0389    0.0000 N   0  0  0  0  0  0  0  0  0  0  0  0
   -3.1633    2.1516    0.0000 C   0  0  0  0  0  0  0  0  0  0  0  0
   -4.6299    1.8368    0.0000 C   0  0  0  0  0  0  0  0  0  0  0  0
   -5.6358    2.9496    0.0000 C   0  0  0  0  0  0  0  0  0  0  0  0
   -2.6180   -0.3886    0.0000 C   0  0  0  0  0  0  0  0  0  0  0  0
   -4.0846   -0.7034    0.0000 C   0  0  0  0  0  0  0  0  0  0  0  0
   -4.5453   -2.1309    0.0000 C   0  0  0  0  0  0  0  0  0  0  0  0
    1.7818    0.5557    0.0000 C   0  0  0  0  0  0  0  0  0  0  0  0
    2.2424    1.9832    0.0000 N   0  0  0  0  0  0  0  0  0  0  0  0
    3.7090    2.2980    0.0000 C   0  0  0  0  0  0  0  0  0  0  0  0
    4.7149    1.1853    0.0000 O   0  0  0  0  0  0  0  0  0  0  0  0
    4.1697    3.7255    0.0000 C   0  0  0  0  0  0  0  0  0  0  0  0
    2.7877   -0.5570    0.0000 C   0  0  0  0  0  0  0  0  0  0  0  0
    4.2543   -0.2422    0.0000 N   0  0  0  0  0  0  0  0  0  0  0  0
    2.3270   -1.9845    0.0000 C   0  0  0  0  0  0  0  0  0  0  0  0
    0.8604   -2.2993    0.0000 C   0  0  0  0  0  0  0  0  0  0  0  0
    0.3997   -3.7268    0.0000 C   0  0  0  0  0  0  0  0  0  0  0  0
   -1.0669   -4.0416    0.0000 O   0  0  0  0  0  0  0  0  0  0  0  0
    1.4056   -4.8395    0.0000 O   0  0  0  0  0  0  0  0  0  0  0  0
  1  2  1  0
  2  3  1  0
  3  4  2  0
  3  5  1  0
  5  6  1  0
  6  7  1  0
  7  8  1  0
  5  9  1  0
  9 10  1  0
 10 11  1  0
  2 12  1  0
 12 13  1  0
 13 14  1  0
 14 15  2  0
 14 16  1  0
 12 17  1  0
 17 18  1  0
 17 19  1  0
 19 20  2  0
 20 21  1  0
 21 22  1  0
 21 23  2  0
 20  1  1  0
M  END
>  <IC50>  (421) 
0.005

>  <cmpdNO>  (421) 
1165

$$$$

     RDKit          2D

 21 21  0  0  0  0  0  0  0  0999 V2000
   -0.8080   -1.0302    0.0000 O   0  0  0  0  0  0  0  0  0  0  0  0
   -0.1221    0.3037    0.0000 C   0  0  0  0  0  0  0  0  0  0  0  0
   -0.9343    1.5648    0.0000 C   0  0  0  0  0  0  0  0  0  0  0  0
   -0.2484    2.8987    0.0000 O   0  0  0  0  0  0  0  0  0  0  0  0
   -2.4325    1.4918    0.0000 N   0  0  0  0  0  0  0  0  0  0  0  0
   -3.2448    2.7529    0.0000 C   0  0  0  0  0  0  0  0  0  0  0  0
   -4.7430    2.6799    0.0000 C   0  0  0  0  0  0  0  0  0  0  0  0
   -3.1185    0.1579    0.0000 C   0  0  0  0  0  0  0  0  0  0  0  0
   -4.6167    0.0849    0.0000 C   0  0  0  0  0  0  0  0  0  0  0  0
    1.3762    0.3766    0.0000 C   0  0  0  0  0  0  0  0  0  0  0  0
    2.0621    1.7106    0.0000 N   0  0  0  0  0  0  0  0  0  0  0  0
    3.5604    1.7835    0.0000 C   0  0  0  0  0  0  0  0  0  0  0  0
    4.3726    0.5225    0.0000 O   0  0  0  0  0  0  0  0  0  0  0  0
    4.2463    3.1175    0.0000 C   0  0  0  0  0  0  0  0  0  0  0  0
    2.1884   -0.8844    0.0000 C   0  0  0  0  0  0  0  0  0  0  0  0
    3.6867   -0.8115    0.0000 N   0  0  0  0  0  0  0  0  0  0  0  0
    1.5025   -2.2184    0.0000 C   0  0  0  0  0  0  0  0  0  0  0  0
    0.0043   -2.2913    0.0000 C   0  0  0  0  0  0  0  0  0  0  0  0
   -0.6817   -3.6252    0.0000 C   0  0  0  0  0  0  0  0  0  0  0  0
   -2.1799   -3.6982    0.0000 O   0  0  0  0  0  0  0  0  0  0  0  0
    0.1306   -4.8863    0.0000 O   0  0  0  0  0  0  0  0  0  0  0  0
  1  2  1  0
  2  3  1  0
  3  4  2  0
  3  5  1  0
  5  6  1  0
  6  7  1  0
  5  8  1  0
  8  9  1  0
  2 10  1  0
 10 11  1  0
 11 12  1  0
 12 13  2  0
 12 14  1  0
 10 15  1  0
 15 16  1  0
 15 17  1  0
 17 18  2  0
 18 19  1  0
 19 20  1  0
 19 21  2  0
 18  1  1  0
M  END
>  <IC50>  (422) 
0.002

>  <cmpdNO>  (422) 
1166

$$$$

     RDKit          2D

 27 28  0  0  0  0  0  0  0  0999 V2000
   -0.3436    0.6028    0.0000 O   0  0  0  0  0  0  0  0  0  0  0  0
   -1.4302   -0.4313    0.0000 C   0  0  0  0  0  0  0  0  0  0  0  0
   -1.0780   -1.8893    0.0000 C   0  0  0  0  0  0  0  0  0  0  0  0
   -2.1646   -2.9234    0.0000 O   0  0  0  0  0  0  0  0  0  0  0  0
    0.3609   -2.3133    0.0000 N   0  0  0  0  0  0  0  0  0  0  0  0
    1.4475   -1.2792    0.0000 C   0  0  0  0  0  0  0  0  0  0  0  0
    2.8863   -1.7032    0.0000 C   0  0  0  0  0  0  0  0  0  0  0  0
    3.9729   -0.6691    0.0000 C   0  0  0  0  0  0  0  0  0  0  0  0
    5.4117   -1.0931    0.0000 C   0  0  0  0  0  0  0  0  0  0  0  0
    6.4983   -0.0590    0.0000 C   0  0  0  0  0  0  0  0  0  0  0  0
    6.1461    1.3991    0.0000 C   0  0  0  0  0  0  0  0  0  0  0  0
    4.7072    1.8231    0.0000 C   0  0  0  0  0  0  0  0  0  0  0  0
    3.6206    0.7890    0.0000 C   0  0  0  0  0  0  0  0  0  0  0  0
    0.7131   -3.7713    0.0000 C   0  0  0  0  0  0  0  0  0  0  0  0
    2.1520   -4.1953    0.0000 C   0  0  0  0  0  0  0  0  0  0  0  0
   -2.8690   -0.0073    0.0000 C   0  0  0  0  0  0  0  0  0  0  0  0
   -3.9556   -1.0414    0.0000 N   0  0  0  0  0  0  0  0  0  0  0  0
   -5.3945   -0.6174    0.0000 C   0  0  0  0  0  0  0  0  0  0  0  0
   -5.7467    0.8407    0.0000 O   0  0  0  0  0  0  0  0  0  0  0  0
   -6.4811   -1.6515    0.0000 C   0  0  0  0  0  0  0  0  0  0  0  0
   -3.2213    1.4508    0.0000 C   0  0  0  0  0  0  0  0  0  0  0  0
   -4.6601    1.8747    0.0000 N   0  0  0  0  0  0  0  0  0  0  0  0
   -2.1347    2.4849    0.0000 C   0  0  0  0  0  0  0  0  0  0  0  0
   -0.6959    2.0609    0.0000 C   0  0  0  0  0  0  0  0  0  0  0  0
    0.3907    3.0950    0.0000 C   0  0  0  0  0  0  0  0  0  0  0  0
    1.8296    2.6710    0.0000 O   0  0  0  0  0  0  0  0  0  0  0  0
    0.0385    4.5530    0.0000 O   0  0  0  0  0  0  0  0  0  0  0  0
  1  2  1  0
  2  3  1  0
  3  4  2  0
  3  5  1  0
  5  6  1  0
  6  7  1  0
  7  8  1  0
  8  9  2  0
  9 10  1  0
 10 11  2  0
 11 12  1  0
 12 13  2  0
  5 14  1  0
 14 15  1  0
  2 16  1  0
 16 17  1  0
 17 18  1  0
 18 19  2  0
 18 20  1  0
 16 21  1  0
 21 22  1  0
 21 23  1  0
 23 24  2  0
 24 25  1  0
 25 26  1  0
 25 27  2  0
 24  1  1  0
 13  8  1  0
M  END
>  <IC50>  (423) 
0.002

>  <cmpdNO>  (423) 
1167

$$$$

     RDKit          2D

 21 22  0  0  0  0  0  0  0  0999 V2000
   -0.7830   -1.0346    0.0000 O   0  0  0  0  0  0  0  0  0  0  0  0
   -0.1060    0.3039    0.0000 C   0  0  0  0  0  0  0  0  0  0  0  0
   -0.9267    1.5595    0.0000 C   0  0  0  0  0  0  0  0  0  0  0  0
   -0.2497    2.8980    0.0000 O   0  0  0  0  0  0  0  0  0  0  0  0
   -2.4244    1.4765    0.0000 N   0  0  0  0  0  0  0  0  0  0  0  0
   -3.2376    0.2160    0.0000 C   0  0  0  0  0  0  0  0  0  0  0  0
   -4.6877    0.5999    0.0000 C   0  0  0  0  0  0  0  0  0  0  0  0
   -4.7707    2.0977    0.0000 C   0  0  0  0  0  0  0  0  0  0  0  0
   -3.3719    2.6394    0.0000 C   0  0  0  0  0  0  0  0  0  0  0  0
    1.3917    0.3869    0.0000 C   0  0  0  0  0  0  0  0  0  0  0  0
    2.0687    1.7254    0.0000 N   0  0  0  0  0  0  0  0  0  0  0  0
    3.5664    1.8084    0.0000 C   0  0  0  0  0  0  0  0  0  0  0  0
    4.3871    0.5528    0.0000 O   0  0  0  0  0  0  0  0  0  0  0  0
    4.2434    3.1469    0.0000 C   0  0  0  0  0  0  0  0  0  0  0  0
    2.2124   -0.8687    0.0000 C   0  0  0  0  0  0  0  0  0  0  0  0
    3.7101   -0.7857    0.0000 N   0  0  0  0  0  0  0  0  0  0  0  0
    1.5354   -2.2072    0.0000 C   0  0  0  0  0  0  0  0  0  0  0  0
    0.0377   -2.2902    0.0000 C   0  0  0  0  0  0  0  0  0  0  0  0
   -0.6393   -3.6287    0.0000 C   0  0  0  0  0  0  0  0  0  0  0  0
   -2.1370   -3.7117    0.0000 O   0  0  0  0  0  0  0  0  0  0  0  0
    0.1814   -4.8843    0.0000 O   0  0  0  0  0  0  0  0  0  0  0  0
  1  2  1  0
  2  3  1  0
  3  4  2  0
  3  5  1  0
  5  6  1  0
  6  7  1  0
  7  8  2  0
  8  9  1  0
  2 10  1  0
 10 11  1  0
 11 12  1  0
 12 13  2  0
 12 14  1  0
 10 15  1  0
 15 16  1  0
 15 17  1  0
 17 18  2  0
 18 19  1  0
 19 20  1  0
 19 21  2  0
 18  1  1  0
  9  5  1  0
M  END
>  <IC50>  (424) 
0.002

>  <cmpdNO>  (424) 
1168

$$$$

     RDKit          2D

 23 23  0  0  0  0  0  0  0  0999 V2000
   -0.9344   -1.4839    0.0000 O   0  0  0  0  0  0  0  0  0  0  0  0
   -0.9606    0.0159    0.0000 C   0  0  0  0  0  0  0  0  0  0  0  0
   -2.2725    0.7431    0.0000 C   0  0  0  0  0  0  0  0  0  0  0  0
   -2.2987    2.2428    0.0000 O   0  0  0  0  0  0  0  0  0  0  0  0
   -3.5583   -0.0295    0.0000 N   0  0  0  0  0  0  0  0  0  0  0  0
   -4.8702    0.6977    0.0000 C   0  0  0  0  0  0  0  0  0  0  0  0
   -6.1559   -0.0748    0.0000 C   0  0  0  0  0  0  0  0  0  0  0  0
   -7.4679    0.6524    0.0000 C   0  0  0  0  0  0  0  0  0  0  0  0
    0.3252    0.7884    0.0000 C   0  0  0  0  0  0  0  0  0  0  0  0
    0.2990    2.2882    0.0000 N   0  0  0  0  0  0  0  0  0  0  0  0
    1.5848    3.0607    0.0000 C   0  0  0  0  0  0  0  0  0  0  0  0
    2.8967    2.3335    0.0000 O   0  0  0  0  0  0  0  0  0  0  0  0
    1.5586    4.5605    0.0000 C   0  0  0  0  0  0  0  0  0  0  0  0
    1.6371    0.0612    0.0000 C   0  0  0  0  0  0  0  0  0  0  0  0
    2.9229    0.8337    0.0000 N   0  0  0  0  0  0  0  0  0  0  0  0
    4.2348    0.1065    0.0000 C   0  0  0  0  0  0  0  0  0  0  0  0
    5.5205    0.8791    0.0000 N   0  0  0  0  0  0  0  0  0  0  0  0
    4.2610   -1.3933    0.0000 N   0  0  0  0  0  0  0  0  0  0  0  0
    1.6633   -1.4386    0.0000 C   0  0  0  0  0  0  0  0  0  0  0  0
    0.3775   -2.2111    0.0000 C   0  0  0  0  0  0  0  0  0  0  0  0
    0.4037   -3.7109    0.0000 C   0  0  0  0  0  0  0  0  0  0  0  0
   -0.8821   -4.4835    0.0000 O   0  0  0  0  0  0  0  0  0  0  0  0
    1.7156   -4.4381    0.0000 O   0  0  0  0  0  0  0  0  0  0  0  0
  1  2  1  0
  2  3  1  0
  3  4  2  0
  3  5  1  0
  5  6  1  0
  6  7  1  0
  7  8  1  0
  2  9  1  0
  9 10  1  0
 10 11  1  0
 11 12  2  0
 11 13  1  0
  9 14  1  0
 14 15  1  0
 15 16  1  0
 16 17  1  0
 16 18  2  0
 14 19  1  0
 19 20  2  0
 20 21  1  0
 21 22  1  0
 21 23  2  0
 20  1  1  0
M  END
>  <IC50>  (425) 
0.251

>  <cmpdNO>  (425) 
1169

$$$$

     RDKit          2D

 22 22  0  0  0  0  0  0  0  0999 V2000
   -1.6971   -0.9938    0.0000 O   0  0  0  0  0  0  0  0  0  0  0  0
   -1.3458    0.4645    0.0000 C   0  0  0  0  0  0  0  0  0  0  0  0
   -2.4330    1.4979    0.0000 C   0  0  0  0  0  0  0  0  0  0  0  0
   -2.0817    2.9562    0.0000 O   0  0  0  0  0  0  0  0  0  0  0  0
   -3.8716    1.0730    0.0000 N   0  0  0  0  0  0  0  0  0  0  0  0
   -4.9588    2.1064    0.0000 C   0  0  0  0  0  0  0  0  0  0  0  0
   -4.2229   -0.3853    0.0000 C   0  0  0  0  0  0  0  0  0  0  0  0
    0.0928    0.8894    0.0000 C   0  0  0  0  0  0  0  0  0  0  0  0
    0.4441    2.3476    0.0000 N   0  0  0  0  0  0  0  0  0  0  0  0
    1.8827    2.7725    0.0000 C   0  0  0  0  0  0  0  0  0  0  0  0
    2.9699    1.7391    0.0000 O   0  0  0  0  0  0  0  0  0  0  0  0
    2.2340    4.2308    0.0000 C   0  0  0  0  0  0  0  0  0  0  0  0
    1.1800   -0.1440    0.0000 C   0  0  0  0  0  0  0  0  0  0  0  0
    2.6186    0.2808    0.0000 N   0  0  0  0  0  0  0  0  0  0  0  0
    3.7058   -0.7526    0.0000 C   0  0  0  0  0  0  0  0  0  0  0  0
    5.1444   -0.3277    0.0000 N   0  0  0  0  0  0  0  0  0  0  0  0
    3.3545   -2.2108    0.0000 N   0  0  0  0  0  0  0  0  0  0  0  0
    0.8287   -1.6023    0.0000 C   0  0  0  0  0  0  0  0  0  0  0  0
   -0.6099   -2.0272    0.0000 C   0  0  0  0  0  0  0  0  0  0  0  0
   -0.9612   -3.4855    0.0000 C   0  0  0  0  0  0  0  0  0  0  0  0
   -2.3998   -3.9103    0.0000 O   0  0  0  0  0  0  0  0  0  0  0  0
    0.1260   -4.5189    0.0000 O   0  0  0  0  0  0  0  0  0  0  0  0
  1  2  1  0
  2  3  1  0
  3  4  2  0
  3  5  1  0
  5  6  1  0
  5  7  1  0
  2  8  1  0
  8  9  1  0
  9 10  1  0
 10 11  2  0
 10 12  1  0
  8 13  1  0
 13 14  1  0
 14 15  1  0
 15 16  1  0
 15 17  2  0
 13 18  1  0
 18 19  2  0
 19 20  1  0
 20 21  1  0
 20 22  2  0
 19  1  1  0
M  END
>  <IC50>  (426) 
0.011

>  <cmpdNO>  (426) 
1170

$$$$

     RDKit          2D

 24 24  0  0  0  0  0  0  0  0999 V2000
   -1.3326   -0.6626    0.0000 O   0  0  0  0  0  0  0  0  0  0  0  0
   -0.7545    0.7215    0.0000 C   0  0  0  0  0  0  0  0  0  0  0  0
   -1.6641    1.9143    0.0000 C   0  0  0  0  0  0  0  0  0  0  0  0
   -1.0859    3.2984    0.0000 O   0  0  0  0  0  0  0  0  0  0  0  0
   -3.1518    1.7229    0.0000 N   0  0  0  0  0  0  0  0  0  0  0  0
   -3.7300    0.3388    0.0000 C   0  0  0  0  0  0  0  0  0  0  0  0
   -5.2177    0.1475    0.0000 C   0  0  0  0  0  0  0  0  0  0  0  0
   -5.7958   -1.2366    0.0000 C   0  0  0  0  0  0  0  0  0  0  0  0
   -4.0614    2.9157    0.0000 C   0  0  0  0  0  0  0  0  0  0  0  0
    0.7333    0.9129    0.0000 C   0  0  0  0  0  0  0  0  0  0  0  0
    1.3114    2.2970    0.0000 N   0  0  0  0  0  0  0  0  0  0  0  0
    2.7992    2.4884    0.0000 C   0  0  0  0  0  0  0  0  0  0  0  0
    3.7088    1.2956    0.0000 O   0  0  0  0  0  0  0  0  0  0  0  0
    3.3773    3.8725    0.0000 C   0  0  0  0  0  0  0  0  0  0  0  0
    1.6429   -0.2798    0.0000 C   0  0  0  0  0  0  0  0  0  0  0  0
    3.1306   -0.0885    0.0000 N   0  0  0  0  0  0  0  0  0  0  0  0
    4.0402   -1.2812    0.0000 C   0  0  0  0  0  0  0  0  0  0  0  0
    5.5280   -1.0899    0.0000 N   0  0  0  0  0  0  0  0  0  0  0  0
    3.4621   -2.6653    0.0000 N   0  0  0  0  0  0  0  0  0  0  0  0
    1.0647   -1.6639    0.0000 C   0  0  0  0  0  0  0  0  0  0  0  0
   -0.4230   -1.8553    0.0000 C   0  0  0  0  0  0  0  0  0  0  0  0
   -1.0012   -3.2394    0.0000 C   0  0  0  0  0  0  0  0  0  0  0  0
   -2.4889   -3.4308    0.0000 O   0  0  0  0  0  0  0  0  0  0  0  0
   -0.0916   -4.4322    0.0000 O   0  0  0  0  0  0  0  0  0  0  0  0
  1  2  1  0
  2  3  1  0
  3  4  2  0
  3  5  1  0
  5  6  1  0
  6  7  1  0
  7  8  1  0
  5  9  1  0
  2 10  1  0
 10 11  1  0
 11 12  1  0
 12 13  2  0
 12 14  1  0
 10 15  1  0
 15 16  1  0
 16 17  1  0
 17 18  1  0
 17 19  2  0
 15 20  1  0
 20 21  2  0
 21 22  1  0
 22 23  1  0
 22 24  2  0
 21  1  1  0
M  END
>  <IC50>  (427) 
0.002

>  <cmpdNO>  (427) 
1171

$$$$

     RDKit          2D

 22 22  0  0  0  0  0  0  0  0999 V2000
   -0.4625   -1.4023    0.0000 O   0  0  0  0  0  0  0  0  0  0  0  0
   -0.8017    0.0589    0.0000 C   0  0  0  0  0  0  0  0  0  0  0  0
   -2.2367    0.4958    0.0000 C   0  0  0  0  0  0  0  0  0  0  0  0
   -3.3325   -0.5285    0.0000 C   0  0  0  0  0  0  0  0  0  0  0  0
   -2.9933   -1.9897    0.0000 O   0  0  0  0  0  0  0  0  0  0  0  0
   -4.7675   -0.0916    0.0000 C   0  0  0  0  0  0  0  0  0  0  0  0
   -5.8633   -1.1159    0.0000 O   0  0  0  0  0  0  0  0  0  0  0  0
    0.2941    1.0832    0.0000 C   0  0  0  0  0  0  0  0  0  0  0  0
   -0.0450    2.5443    0.0000 N   0  0  0  0  0  0  0  0  0  0  0  0
   -1.4800    2.9812    0.0000 C   0  0  0  0  0  0  0  0  0  0  0  0
   -2.5758    1.9569    0.0000 O   0  0  0  0  0  0  0  0  0  0  0  0
   -1.8191    4.4424    0.0000 C   0  0  0  0  0  0  0  0  0  0  0  0
    1.7291    0.6463    0.0000 C   0  0  0  0  0  0  0  0  0  0  0  0
    2.8249    1.6706    0.0000 N   0  0  0  0  0  0  0  0  0  0  0  0
    4.2599    1.2337    0.0000 C   0  0  0  0  0  0  0  0  0  0  0  0
    5.3557    2.2580    0.0000 N   0  0  0  0  0  0  0  0  0  0  0  0
    4.5991   -0.2274    0.0000 N   0  0  0  0  0  0  0  0  0  0  0  0
    2.0683   -0.8148    0.0000 C   0  0  0  0  0  0  0  0  0  0  0  0
    0.9724   -1.8391    0.0000 C   0  0  0  0  0  0  0  0  0  0  0  0
    1.3116   -3.3003    0.0000 C   0  0  0  0  0  0  0  0  0  0  0  0
    0.2157   -4.3246    0.0000 O   0  0  0  0  0  0  0  0  0  0  0  0
    2.7465   -3.7372    0.0000 O   0  0  0  0  0  0  0  0  0  0  0  0
  1  2  1  0
  2  3  1  0
  3  4  1  0
  4  5  1  0
  4  6  1  0
  6  7  1  0
  2  8  1  0
  8  9  1  0
  9 10  1  0
 10 11  2  0
 10 12  1  0
  8 13  1  0
 13 14  1  0
 14 15  1  0
 15 16  1  0
 15 17  2  0
 13 18  1  0
 18 19  2  0
 19 20  1  0
 20 21  1  0
 20 22  2  0
 19  1  1  0
M  END
>  <IC50>  (428) 
0

>  <cmpdNO>  (428) 
1173

$$$$

     RDKit          2D

 20 20  0  0  0  0  0  0  0  0999 V2000
    0.8864   -0.7769    0.0000 O   0  0  0  0  0  0  0  0  0  0  0  0
   -0.0627    0.3846    0.0000 C   0  0  0  0  0  0  0  0  0  0  0  0
   -1.5431    0.1435    0.0000 O   0  0  0  0  0  0  0  0  0  0  0  0
   -2.0745   -1.2593    0.0000 C   0  0  0  0  0  0  0  0  0  0  0  0
   -3.5550   -1.5004    0.0000 C   0  0  0  0  0  0  0  0  0  0  0  0
   -4.0864   -2.9032    0.0000 C   0  0  0  0  0  0  0  0  0  0  0  0
   -1.1254   -2.4208    0.0000 C   0  0  0  0  0  0  0  0  0  0  0  0
   -1.6568   -3.8235    0.0000 C   0  0  0  0  0  0  0  0  0  0  0  0
    0.4687    1.7874    0.0000 C   0  0  0  0  0  0  0  0  0  0  0  0
   -0.4804    2.9489    0.0000 N   0  0  0  0  0  0  0  0  0  0  0  0
   -1.9609    2.7077    0.0000 C   0  0  0  0  0  0  0  0  0  0  0  0
   -2.4923    1.3050    0.0000 O   0  0  0  0  0  0  0  0  0  0  0  0
   -2.9100    3.8693    0.0000 C   0  0  0  0  0  0  0  0  0  0  0  0
    1.9492    2.0285    0.0000 C   0  0  0  0  0  0  0  0  0  0  0  0
    2.4806    3.4313    0.0000 N   0  0  0  0  0  0  0  0  0  0  0  0
    2.8983    0.8670    0.0000 C   0  0  0  0  0  0  0  0  0  0  0  0
    2.3669   -0.5357    0.0000 C   0  0  0  0  0  0  0  0  0  0  0  0
    3.3160   -1.6973    0.0000 C   0  0  0  0  0  0  0  0  0  0  0  0
    2.7847   -3.1000    0.0000 O   0  0  0  0  0  0  0  0  0  0  0  0
    4.7965   -1.4561    0.0000 O   0  0  0  0  0  0  0  0  0  0  0  0
  1  2  1  0
  2  3  1  0
  3  4  1  0
  4  5  1  0
  5  6  1  0
  4  7  1  0
  7  8  1  0
  2  9  1  0
  9 10  1  0
 10 11  1  0
 11 12  2  0
 11 13  1  0
  9 14  1  0
 14 15  1  0
 14 16  1  0
 16 17  2  0
 17 18  1  0
 18 19  1  0
 18 20  2  0
 17  1  1  0
M  END
>  <IC50>  (429) 
0

>  <cmpdNO>  (429) 
1174

$$$$

     RDKit          2D

 23 23  0  0  0  0  0  0  0  0999 V2000
   -1.2752   -1.2351    0.0000 O   0  0  0  0  0  0  0  0  0  0  0  0
   -1.1080    0.2555    0.0000 C   0  0  0  0  0  0  0  0  0  0  0  0
   -2.3154    1.1457    0.0000 C   0  0  0  0  0  0  0  0  0  0  0  0
   -2.1482    2.6363    0.0000 O   0  0  0  0  0  0  0  0  0  0  0  0
   -3.6899    0.5451    0.0000 C   0  0  0  0  0  0  0  0  0  0  0  0
   -3.8571   -0.9455    0.0000 O   0  0  0  0  0  0  0  0  0  0  0  0
   -4.8972    1.4353    0.0000 C   0  0  0  0  0  0  0  0  0  0  0  0
   -6.2718    0.8347    0.0000 O   0  0  0  0  0  0  0  0  0  0  0  0
    0.2665    0.8561    0.0000 C   0  0  0  0  0  0  0  0  0  0  0  0
    0.4337    2.3467    0.0000 N   0  0  0  0  0  0  0  0  0  0  0  0
    1.8083    2.9472    0.0000 C   0  0  0  0  0  0  0  0  0  0  0  0
    3.0156    2.0571    0.0000 O   0  0  0  0  0  0  0  0  0  0  0  0
    1.9755    4.4379    0.0000 C   0  0  0  0  0  0  0  0  0  0  0  0
    1.4739   -0.0341    0.0000 C   0  0  0  0  0  0  0  0  0  0  0  0
    2.8484    0.5665    0.0000 N   0  0  0  0  0  0  0  0  0  0  0  0
    4.0558   -0.3237    0.0000 C   0  0  0  0  0  0  0  0  0  0  0  0
    5.4303    0.2769    0.0000 N   0  0  0  0  0  0  0  0  0  0  0  0
    3.8886   -1.8143    0.0000 N   0  0  0  0  0  0  0  0  0  0  0  0
    1.3067   -1.5247    0.0000 C   0  0  0  0  0  0  0  0  0  0  0  0
   -0.0679   -2.1252    0.0000 C   0  0  0  0  0  0  0  0  0  0  0  0
   -0.2351   -3.6159    0.0000 C   0  0  0  0  0  0  0  0  0  0  0  0
   -1.6096   -4.2164    0.0000 O   0  0  0  0  0  0  0  0  0  0  0  0
    0.9723   -4.5060    0.0000 O   0  0  0  0  0  0  0  0  0  0  0  0
  1  2  1  0
  2  3  1  0
  3  4  1  0
  3  5  1  0
  5  6  1  0
  5  7  1  0
  7  8  1  0
  2  9  1  0
  9 10  1  0
 10 11  1  0
 11 12  2  0
 11 13  1  0
  9 14  1  0
 14 15  1  0
 15 16  1  0
 16 17  1  0
 16 18  2  0
 14 19  1  0
 19 20  1  0
 20 21  1  0
 21 22  1  0
 21 23  2  0
 20  1  1  0
M  END
>  <IC50>  (430) 
0.002

>  <cmpdNO>  (430) 
1179

$$$$

     RDKit          2D

 29 29  0  0  0  0  0  0  0  0999 V2000
    2.6956    1.0449    0.0000 O   0  0  0  0  0  0  0  0  0  0  0  0
    1.9140   -0.2354    0.0000 C   0  0  0  0  0  0  0  0  0  0  0  0
    2.6321   -1.5524    0.0000 C   0  0  0  0  0  0  0  0  0  0  0  0
    2.2255   -2.4487    0.0000 O   0  0  0  0  0  0  0  0  0  0  0  0
    4.1316   -1.5891    0.0000 C   0  0  0  0  0  0  0  0  0  0  0  0
    4.9132   -0.3087    0.0000 O   0  0  0  0  0  0  0  0  0  0  0  0
    4.8497   -2.9060    0.0000 C   0  0  0  0  0  0  0  0  0  0  0  0
    6.3492   -2.9427    0.0000 O   0  0  0  0  0  0  0  0  0  0  0  0
    0.4145   -0.1988    0.0000 C   0  0  0  0  0  0  0  0  0  0  0  0
   -0.3670   -1.4791    0.0000 N   0  0  0  0  0  0  0  0  0  0  0  0
    0.3510   -2.7961    0.0000 C   0  0  0  0  0  0  0  0  0  0  0  0
    1.3246   -2.9399    0.0000 O   0  0  0  0  0  0  0  0  0  0  0  0
   -0.4305   -4.0764    0.0000 C   0  0  0  0  0  0  0  0  0  0  0  0
   -0.3035    1.1182    0.0000 C   0  0  0  0  0  0  0  0  0  0  0  0
   -1.8031    1.1548    0.0000 N   0  0  0  0  0  0  0  0  0  0  0  0
   -2.5846   -0.1255    0.0000 C   0  0  0  0  0  0  0  0  0  0  0  0
   -4.0842   -0.0888    0.0000 C   0  0  0  0  0  0  0  0  0  0  0  0
   -4.8657   -1.3691    0.0000 C   0  0  0  0  0  0  0  0  0  0  0  0
   -6.3652   -1.3325    0.0000 C   0  0  0  0  0  0  0  0  0  0  0  0
   -7.1467   -2.6128    0.0000 O   0  0  0  0  0  0  0  0  0  0  0  0
   -7.0833   -0.0155    0.0000 O   0  0  0  0  0  0  0  0  0  0  0  0
   -2.5211    2.4718    0.0000 C   0  0  0  0  0  0  0  0  0  0  0  0
   -4.0207    2.5085    0.0000 N   0  0  0  0  0  0  0  0  0  0  0  0
   -1.7396    3.7521    0.0000 N   0  0  0  0  0  0  0  0  0  0  0  0
    0.4780    2.3985    0.0000 C   0  0  0  0  0  0  0  0  0  0  0  0
    1.9775    2.3619    0.0000 C   0  0  0  0  0  0  0  0  0  0  0  0
    2.7591    3.6422    0.0000 C   0  0  0  0  0  0  0  0  0  0  0  0
    4.2586    3.6055    0.0000 O   0  0  0  0  0  0  0  0  0  0  0  0
    2.0410    4.9592    0.0000 O   0  0  0  0  0  0  0  0  0  0  0  0
  2  1  1  1
  2  3  1  0
  3  4  1  1
  3  5  1  0
  5  6  1  6
  5  7  1  0
  7  8  1  0
  2  9  1  0
  9 10  1  6
 10 11  1  0
 11 12  2  0
 11 13  1  0
  9 14  1  0
 14 15  1  1
 15 16  1  0
 16 17  1  0
 17 18  1  0
 18 19  1  0
 19 20  1  0
 19 21  2  0
 15 22  1  0
 22 23  1  0
 22 24  2  0
 14 25  1  0
 25 26  2  0
 26 27  1  0
 27 28  1  0
 27 29  2  0
 26  1  1  0
M  END
>  <IC50>  (431) 
7.12

>  <cmpdNO>  (431) 
1180

$$$$

     RDKit          2D

 35 36  0  0  0  0  0  0  0  0999 V2000
    4.4954    0.3159    0.0000 O   0  0  0  0  0  0  0  0  0  0  0  0
    3.3259   -0.6234    0.0000 C   0  0  0  0  0  0  0  0  0  0  0  0
    3.5546   -2.1059    0.0000 C   0  0  0  0  0  0  0  0  0  0  0  0
    2.8682   -2.8111    0.0000 O   0  0  0  0  0  0  0  0  0  0  0  0
    4.9528   -2.6490    0.0000 C   0  0  0  0  0  0  0  0  0  0  0  0
    6.1223   -1.7097    0.0000 O   0  0  0  0  0  0  0  0  0  0  0  0
    5.1816   -4.1315    0.0000 C   0  0  0  0  0  0  0  0  0  0  0  0
    6.5798   -4.6746    0.0000 O   0  0  0  0  0  0  0  0  0  0  0  0
    1.9277   -0.0803    0.0000 C   0  0  0  0  0  0  0  0  0  0  0  0
    0.7582   -1.0196    0.0000 N   0  0  0  0  0  0  0  0  0  0  0  0
    0.9869   -2.5021    0.0000 C   0  0  0  0  0  0  0  0  0  0  0  0
    1.8540   -2.9676    0.0000 O   0  0  0  0  0  0  0  0  0  0  0  0
   -0.1825   -3.4414    0.0000 C   0  0  0  0  0  0  0  0  0  0  0  0
    1.6989    1.4022    0.0000 C   0  0  0  0  0  0  0  0  0  0  0  0
    0.3007    1.9453    0.0000 N   0  0  0  0  0  0  0  0  0  0  0  0
   -0.8688    1.0060    0.0000 C   0  0  0  0  0  0  0  0  0  0  0  0
   -2.2670    1.5491    0.0000 C   0  0  0  0  0  0  0  0  0  0  0  0
   -3.4364    0.6098    0.0000 C   0  0  0  0  0  0  0  0  0  0  0  0
   -4.8347    1.1529    0.0000 C   0  0  0  0  0  0  0  0  0  0  0  0
   -5.0634    2.6354    0.0000 O   0  0  0  0  0  0  0  0  0  0  0  0
   -6.0041    0.2136    0.0000 N   0  0  0  0  0  0  0  0  0  0  0  0
   -5.7754   -1.2688    0.0000 C   0  0  0  0  0  0  0  0  0  0  0  0
   -6.9449   -2.2082    0.0000 C   0  0  0  0  0  0  0  0  0  0  0  0
   -8.3431   -1.6650    0.0000 N   0  0  0  0  0  0  0  0  0  0  0  0
   -8.5718   -0.1826    0.0000 C   0  0  0  0  0  0  0  0  0  0  0  0
   -7.4024    0.7567    0.0000 C   0  0  0  0  0  0  0  0  0  0  0  0
   -9.5126   -2.6044    0.0000 C   0  0  0  0  0  0  0  0  0  0  0  0
    0.0720    3.4278    0.0000 C   0  0  0  0  0  0  0  0  0  0  0  0
   -1.3262    3.9709    0.0000 N   0  0  0  0  0  0  0  0  0  0  0  0
    1.2415    4.3671    0.0000 N   0  0  0  0  0  0  0  0  0  0  0  0
    2.8684    2.3415    0.0000 C   0  0  0  0  0  0  0  0  0  0  0  0
    4.2666    1.7984    0.0000 C   0  0  0  0  0  0  0  0  0  0  0  0
    5.4361    2.7377    0.0000 C   0  0  0  0  0  0  0  0  0  0  0  0
    6.8343    2.1946    0.0000 O   0  0  0  0  0  0  0  0  0  0  0  0
    5.2074    4.2201    0.0000 O   0  0  0  0  0  0  0  0  0  0  0  0
  2  1  1  1
  2  3  1  0
  3  4  1  1
  3  5  1  0
  5  6  1  6
  5  7  1  0
  7  8  1  0
  2  9  1  0
  9 10  1  6
 10 11  1  0
 11 12  2  0
 11 13  1  0
  9 14  1  0
 14 15  1  1
 15 16  1  0
 16 17  1  0
 17 18  1  0
 18 19  1  0
 19 20  2  0
 19 21  1  0
 21 22  1  0
 22 23  1  0
 23 24  1  0
 24 25  1  0
 25 26  1  0
 24 27  1  0
 15 28  1  0
 28 29  1  0
 28 30  2  0
 14 31  1  0
 31 32  2  0
 32 33  1  0
 33 34  1  0
 33 35  2  0
 32  1  1  0
 26 21  1  0
M  END
>  <IC50>  (432) 
6.5

>  <cmpdNO>  (432) 
1181

$$$$

     RDKit          2D

 23 23  0  0  0  0  0  0  0  0999 V2000
   -1.2752   -1.2351    0.0000 O   0  0  0  0  0  0  0  0  0  0  0  0
   -1.1080    0.2555    0.0000 C   0  0  0  0  0  0  0  0  0  0  0  0
   -2.3154    1.1457    0.0000 C   0  0  0  0  0  0  0  0  0  0  0  0
   -2.1482    2.6363    0.0000 O   0  0  0  0  0  0  0  0  0  0  0  0
   -3.6899    0.5451    0.0000 C   0  0  0  0  0  0  0  0  0  0  0  0
   -3.8571   -0.9455    0.0000 O   0  0  0  0  0  0  0  0  0  0  0  0
   -4.8972    1.4353    0.0000 C   0  0  0  0  0  0  0  0  0  0  0  0
   -6.2718    0.8347    0.0000 O   0  0  0  0  0  0  0  0  0  0  0  0
    0.2665    0.8561    0.0000 C   0  0  0  0  0  0  0  0  0  0  0  0
    0.4337    2.3467    0.0000 N   0  0  0  0  0  0  0  0  0  0  0  0
    1.8083    2.9472    0.0000 C   0  0  0  0  0  0  0  0  0  0  0  0
    3.0156    2.0571    0.0000 O   0  0  0  0  0  0  0  0  0  0  0  0
    1.9755    4.4379    0.0000 C   0  0  0  0  0  0  0  0  0  0  0  0
    1.4739   -0.0341    0.0000 C   0  0  0  0  0  0  0  0  0  0  0  0
    2.8484    0.5665    0.0000 N   0  0  0  0  0  0  0  0  0  0  0  0
    4.0558   -0.3237    0.0000 C   0  0  0  0  0  0  0  0  0  0  0  0
    5.4303    0.2769    0.0000 N   0  0  0  0  0  0  0  0  0  0  0  0
    3.8886   -1.8143    0.0000 N   0  0  0  0  0  0  0  0  0  0  0  0
    1.3067   -1.5247    0.0000 C   0  0  0  0  0  0  0  0  0  0  0  0
   -0.0679   -2.1252    0.0000 C   0  0  0  0  0  0  0  0  0  0  0  0
   -0.2351   -3.6159    0.0000 C   0  0  0  0  0  0  0  0  0  0  0  0
   -1.6096   -4.2164    0.0000 O   0  0  0  0  0  0  0  0  0  0  0  0
    0.9723   -4.5060    0.0000 O   0  0  0  0  0  0  0  0  0  0  0  0
  2  1  1  1
  2  3  1  0
  3  4  1  1
  3  5  1  0
  5  6  1  6
  5  7  1  0
  7  8  1  0
  2  9  1  0
  9 10  1  6
 10 11  1  0
 11 12  2  0
 11 13  1  0
  9 14  1  0
 14 15  1  1
 15 16  2  0
 16 17  1  0
 16 18  1  0
 14 19  1  0
 19 20  2  0
 20 21  1  0
 21 22  1  0
 21 23  2  0
 20  1  1  0
M  END
>  <IC50>  (433) 
0.004

>  <cmpdNO>  (433) 
1182

$$$$

     RDKit          2D

 34 35  0  0  0  0  0  0  0  0999 V2000
    4.1983    0.4506    0.0000 O   0  0  0  0  0  0  0  0  0  0  0  0
    3.0774   -0.5462    0.0000 C   0  0  0  0  0  0  0  0  0  0  0  0
    3.3803   -2.0153    0.0000 C   0  0  0  0  0  0  0  0  0  0  0  0
    2.7301   -2.7541    0.0000 O   0  0  0  0  0  0  0  0  0  0  0  0
    4.8040   -2.4876    0.0000 C   0  0  0  0  0  0  0  0  0  0  0  0
    5.9248   -1.4907    0.0000 O   0  0  0  0  0  0  0  0  0  0  0  0
    5.1069   -3.9567    0.0000 C   0  0  0  0  0  0  0  0  0  0  0  0
    6.5306   -4.4289    0.0000 O   0  0  0  0  0  0  0  0  0  0  0  0
    1.6537   -0.0740    0.0000 C   0  0  0  0  0  0  0  0  0  0  0  0
    0.5328   -1.0708    0.0000 N   0  0  0  0  0  0  0  0  0  0  0  0
    0.8357   -2.5399    0.0000 C   0  0  0  0  0  0  0  0  0  0  0  0
    1.7251   -2.9613    0.0000 O   0  0  0  0  0  0  0  0  0  0  0  0
   -0.2851   -3.5368    0.0000 C   0  0  0  0  0  0  0  0  0  0  0  0
    1.3508    1.3951    0.0000 C   0  0  0  0  0  0  0  0  0  0  0  0
   -0.0729    1.8674    0.0000 N   0  0  0  0  0  0  0  0  0  0  0  0
   -1.1937    0.8706    0.0000 C   0  0  0  0  0  0  0  0  0  0  0  0
   -2.6175    1.3428    0.0000 C   0  0  0  0  0  0  0  0  0  0  0  0
   -3.7383    0.3460    0.0000 C   0  0  0  0  0  0  0  0  0  0  0  0
   -5.1620    0.8182    0.0000 C   0  0  0  0  0  0  0  0  0  0  0  0
   -5.4649    2.2873    0.0000 O   0  0  0  0  0  0  0  0  0  0  0  0
   -6.2829   -0.1786    0.0000 N   0  0  0  0  0  0  0  0  0  0  0  0
   -5.9800   -1.6477    0.0000 C   0  0  0  0  0  0  0  0  0  0  0  0
   -7.1009   -2.6446    0.0000 C   0  0  0  0  0  0  0  0  0  0  0  0
   -8.5246   -2.1723    0.0000 N   0  0  0  0  0  0  0  0  0  0  0  0
   -8.8274   -0.7032    0.0000 C   0  0  0  0  0  0  0  0  0  0  0  0
   -7.7066    0.2936    0.0000 C   0  0  0  0  0  0  0  0  0  0  0  0
   -0.3758    3.3365    0.0000 C   0  0  0  0  0  0  0  0  0  0  0  0
   -1.7995    3.8088    0.0000 N   0  0  0  0  0  0  0  0  0  0  0  0
    0.7451    4.3334    0.0000 N   0  0  0  0  0  0  0  0  0  0  0  0
    2.4717    2.3920    0.0000 C   0  0  0  0  0  0  0  0  0  0  0  0
    3.8954    1.9197    0.0000 C   0  0  0  0  0  0  0  0  0  0  0  0
    5.0162    2.9166    0.0000 C   0  0  0  0  0  0  0  0  0  0  0  0
    6.4399    2.4443    0.0000 O   0  0  0  0  0  0  0  0  0  0  0  0
    4.7134    4.3857    0.0000 O   0  0  0  0  0  0  0  0  0  0  0  0
  2  1  1  1
  2  3  1  0
  3  4  1  1
  3  5  1  0
  5  6  1  6
  5  7  1  0
  7  8  1  0
  2  9  1  0
  9 10  1  6
 10 11  1  0
 11 12  2  0
 11 13  1  0
  9 14  1  0
 14 15  1  1
 15 16  1  0
 16 17  1  0
 17 18  1  0
 18 19  1  0
 19 20  2  0
 19 21  1  0
 21 22  1  0
 22 23  1  0
 23 24  1  0
 24 25  1  0
 25 26  1  0
 15 27  1  0
 27 28  1  0
 27 29  2  0
 14 30  1  0
 30 31  2  0
 31 32  1  0
 32 33  1  0
 32 34  2  0
 31  1  1  0
 26 21  1  0
M  END
>  <IC50>  (434) 
2.15

>  <cmpdNO>  (434) 
1183

$$$$

     RDKit          2D

 18 19  0  0  0  0  0  0  0  0999 V2000
   -4.5459    1.6159    0.0000 O   0  0  0  0  0  0  0  0  0  0  0  0
   -3.7868    0.3222    0.0000 C   0  0  0  0  0  0  0  0  0  0  0  0
   -4.5278   -0.9821    0.0000 O   0  0  0  0  0  0  0  0  0  0  0  0
   -2.2869    0.3326    0.0000 C   0  0  0  0  0  0  0  0  0  0  0  0
   -1.5459    1.6368    0.0000 C   0  0  0  0  0  0  0  0  0  0  0  0
   -0.0460    1.6472    0.0000 C   0  0  0  0  0  0  0  0  0  0  0  0
    0.6950    2.9514    0.0000 N   0  0  0  0  0  0  0  0  0  0  0  0
    0.7130    0.3534    0.0000 C   0  0  0  0  0  0  0  0  0  0  0  0
    2.2130    0.3638    0.0000 N   0  0  0  0  0  0  0  0  0  0  0  0
    2.9540    1.6681    0.0000 C   0  0  0  0  0  0  0  0  0  0  0  0
    2.1950    2.9619    0.0000 O   0  0  0  0  0  0  0  0  0  0  0  0
    4.4539    1.6785    0.0000 C   0  0  0  0  0  0  0  0  0  0  0  0
   -0.0279   -0.9508    0.0000 C   0  0  0  0  0  0  0  0  0  0  0  0
    0.7311   -2.2446    0.0000 N   0  0  0  0  0  0  0  0  0  0  0  0
    0.3529   -3.6961    0.0000 C   0  0  0  0  0  0  0  0  0  0  0  0
    1.8045   -4.0743    0.0000 C   0  0  0  0  0  0  0  0  0  0  0  0
    2.1826   -2.6227    0.0000 C   0  0  0  0  0  0  0  0  0  0  0  0
   -1.5279   -0.9612    0.0000 C   0  0  0  0  0  0  0  0  0  0  0  0
  1  2  1  0
  2  3  2  0
  2  4  1  0
  4  5  1  0
  5  6  1  0
  6  7  1  0
  6  8  1  0
  8  9  1  0
  9 10  1  0
 10 11  2  0
 10 12  1  0
  8 13  1  0
 13 14  1  0
 14 15  1  0
 15 16  1  0
 16 17  1  0
 13 18  1  0
  4 18  2  0
 17 14  1  0
M  END
>  <IC50>  (435) 
0.001

>  <cmpdNO>  (435) 
1184

$$$$

     RDKit          2D

 19 20  0  0  0  0  0  0  0  0999 V2000
   -4.9478    0.6428    0.0000 O   0  0  0  0  0  0  0  0  0  0  0  0
   -3.8960   -0.4266    0.0000 C   0  0  0  0  0  0  0  0  0  0  0  0
   -4.2962   -1.8722    0.0000 O   0  0  0  0  0  0  0  0  0  0  0  0
   -2.4439   -0.0503    0.0000 C   0  0  0  0  0  0  0  0  0  0  0  0
   -2.0437    1.3953    0.0000 C   0  0  0  0  0  0  0  0  0  0  0  0
   -0.5917    1.7715    0.0000 C   0  0  0  0  0  0  0  0  0  0  0  0
   -0.1915    3.2172    0.0000 N   0  0  0  0  0  0  0  0  0  0  0  0
    0.4602    0.7022    0.0000 C   0  0  0  0  0  0  0  0  0  0  0  0
    1.9122    1.0784    0.0000 N   0  0  0  0  0  0  0  0  0  0  0  0
    2.3124    2.5240    0.0000 C   0  0  0  0  0  0  0  0  0  0  0  0
    1.2605    3.5934    0.0000 O   0  0  0  0  0  0  0  0  0  0  0  0
    3.7645    2.9003    0.0000 C   0  0  0  0  0  0  0  0  0  0  0  0
    0.0600   -0.7435    0.0000 C   0  0  0  0  0  0  0  0  0  0  0  0
    1.1118   -1.8129    0.0000 N   0  0  0  0  0  0  0  0  0  0  0  0
    2.5953   -1.5905    0.0000 C   0  0  0  0  0  0  0  0  0  0  0  0
    3.2652   -2.9326    0.0000 C   0  0  0  0  0  0  0  0  0  0  0  0
    2.1958   -3.9844    0.0000 C   0  0  0  0  0  0  0  0  0  0  0  0
    0.8650   -3.2924    0.0000 C   0  0  0  0  0  0  0  0  0  0  0  0
   -1.3921   -1.1197    0.0000 C   0  0  0  0  0  0  0  0  0  0  0  0
  1  2  1  0
  2  3  2  0
  2  4  1  0
  4  5  1  0
  5  6  1  0
  6  7  1  0
  6  8  1  0
  8  9  1  0
  9 10  1  0
 10 11  2  0
 10 12  1  0
  8 13  1  0
 13 14  1  0
 14 15  1  0
 15 16  1  0
 16 17  1  0
 17 18  1  0
 13 19  1  0
  4 19  2  0
 18 14  1  0
M  END
>  <IC50>  (436) 
0.31

>  <cmpdNO>  (436) 
1185

$$$$

     RDKit          2D

 20 21  0  0  0  0  0  0  0  0999 V2000
   -5.0766   -0.9346    0.0000 O   0  0  0  0  0  0  0  0  0  0  0  0
   -3.7264   -1.5880    0.0000 C   0  0  0  0  0  0  0  0  0  0  0  0
   -3.6172   -3.0840    0.0000 O   0  0  0  0  0  0  0  0  0  0  0  0
   -2.4854   -0.7454    0.0000 C   0  0  0  0  0  0  0  0  0  0  0  0
   -2.5947    0.7506    0.0000 C   0  0  0  0  0  0  0  0  0  0  0  0
   -1.3537    1.5932    0.0000 C   0  0  0  0  0  0  0  0  0  0  0  0
   -1.4629    3.0892    0.0000 N   0  0  0  0  0  0  0  0  0  0  0  0
   -0.0035    0.9397    0.0000 C   0  0  0  0  0  0  0  0  0  0  0  0
    1.2375    1.7823    0.0000 N   0  0  0  0  0  0  0  0  0  0  0  0
    1.1283    3.2783    0.0000 C   0  0  0  0  0  0  0  0  0  0  0  0
   -0.2219    3.9318    0.0000 O   0  0  0  0  0  0  0  0  0  0  0  0
    2.3693    4.1209    0.0000 C   0  0  0  0  0  0  0  0  0  0  0  0
    0.1057   -0.5563    0.0000 C   0  0  0  0  0  0  0  0  0  0  0  0
    1.4559   -1.2097    0.0000 N   0  0  0  0  0  0  0  0  0  0  0  0
    1.5651   -2.7057    0.0000 C   0  0  0  0  0  0  0  0  0  0  0  0
    2.9153   -3.3592    0.0000 C   0  0  0  0  0  0  0  0  0  0  0  0
    4.1563   -2.5166    0.0000 C   0  0  0  0  0  0  0  0  0  0  0  0
    4.0471   -1.0206    0.0000 C   0  0  0  0  0  0  0  0  0  0  0  0
    2.6969   -0.3671    0.0000 C   0  0  0  0  0  0  0  0  0  0  0  0
   -1.1353   -1.3989    0.0000 C   0  0  0  0  0  0  0  0  0  0  0  0
  1  2  1  0
  2  3  2  0
  2  4  1  0
  4  5  1  0
  5  6  1  0
  6  7  1  0
  6  8  1  0
  8  9  1  0
  9 10  1  0
 10 11  2  0
 10 12  1  0
  8 13  1  0
 13 14  1  0
 14 15  1  0
 15 16  1  0
 16 17  1  0
 17 18  1  0
 18 19  1  0
 13 20  1  0
  4 20  2  0
 19 14  1  0
M  END
>  <IC50>  (437) 
0.025

>  <cmpdNO>  (437) 
1186

$$$$

     RDKit          2D

 21 22  0  0  0  0  0  0  0  0999 V2000
    4.9689    1.9588    0.0000 O   0  0  0  0  0  0  0  0  0  0  0  0
    3.5077    2.2978    0.0000 C   0  0  0  0  0  0  0  0  0  0  0  0
    3.0706    3.7327    0.0000 O   0  0  0  0  0  0  0  0  0  0  0  0
    2.4835    1.2019    0.0000 C   0  0  0  0  0  0  0  0  0  0  0  0
    2.9205   -0.2330    0.0000 C   0  0  0  0  0  0  0  0  0  0  0  0
    1.8963   -1.3290    0.0000 C   0  0  0  0  0  0  0  0  0  0  0  0
    2.3334   -2.7639    0.0000 N   0  0  0  0  0  0  0  0  0  0  0  0
    0.4351   -0.9900    0.0000 C   0  0  0  0  0  0  0  0  0  0  0  0
   -0.5890   -2.0859    0.0000 N   0  0  0  0  0  0  0  0  0  0  0  0
   -0.1520   -3.5208    0.0000 C   0  0  0  0  0  0  0  0  0  0  0  0
    1.3092   -3.8598    0.0000 O   0  0  0  0  0  0  0  0  0  0  0  0
   -1.1762   -4.6168    0.0000 C   0  0  0  0  0  0  0  0  0  0  0  0
   -0.0019    0.4449    0.0000 C   0  0  0  0  0  0  0  0  0  0  0  0
    1.0223    1.5409    0.0000 C   0  0  0  0  0  0  0  0  0  0  0  0
   -1.4631    0.7839    0.0000 C   0  0  0  0  0  0  0  0  0  0  0  0
   -2.4025   -0.3855    0.0000 C   0  0  0  0  0  0  0  0  0  0  0  0
   -3.9025   -0.3801    0.0000 C   0  0  0  0  0  0  0  0  0  0  0  0
   -4.8335    0.7960    0.0000 C   0  0  0  0  0  0  0  0  0  0  0  0
   -4.4945    2.2572    0.0000 C   0  0  0  0  0  0  0  0  0  0  0  0
   -3.1408    2.9032    0.0000 C   0  0  0  0  0  0  0  0  0  0  0  0
   -1.7916    2.2475    0.0000 C   0  0  0  0  0  0  0  0  0  0  0  0
  1  2  1  0
  2  3  2  0
  2  4  1  0
  4  5  1  0
  5  6  1  0
  6  7  1  0
  6  8  1  0
  8  9  1  0
  9 10  1  0
 10 11  2  0
 10 12  1  0
  8 13  1  0
 13 14  1  0
 13 15  1  0
 15 16  1  0
 16 17  1  0
 17 18  1  0
 18 19  1  0
 19 20  1  0
 20 21  1  0
  4 14  2  0
 21 15  1  0
M  END
>  <IC50>  (438) 
0.035

>  <cmpdNO>  (438) 
1187

$$$$

     RDKit          2D

 22 23  0  0  0  0  0  0  0  0999 V2000
   -4.9592   -2.4373    0.0000 O   0  0  0  0  0  0  0  0  0  0  0  0
   -3.4699   -2.6162    0.0000 C   0  0  0  0  0  0  0  0  0  0  0  0
   -2.8802   -3.9954    0.0000 O   0  0  0  0  0  0  0  0  0  0  0  0
   -2.5703   -1.4159    0.0000 C   0  0  0  0  0  0  0  0  0  0  0  0
   -3.1601   -0.0367    0.0000 C   0  0  0  0  0  0  0  0  0  0  0  0
   -2.2605    1.1636    0.0000 C   0  0  0  0  0  0  0  0  0  0  0  0
   -2.8502    2.5428    0.0000 N   0  0  0  0  0  0  0  0  0  0  0  0
   -0.7712    0.9847    0.0000 C   0  0  0  0  0  0  0  0  0  0  0  0
    0.1284    2.1850    0.0000 N   0  0  0  0  0  0  0  0  0  0  0  0
   -0.4613    3.5642    0.0000 C   0  0  0  0  0  0  0  0  0  0  0  0
   -1.9506    3.7432    0.0000 O   0  0  0  0  0  0  0  0  0  0  0  0
    0.4383    4.7646    0.0000 C   0  0  0  0  0  0  0  0  0  0  0  0
   -0.1815   -0.3945    0.0000 C   0  0  0  0  0  0  0  0  0  0  0  0
    1.3078   -0.5734    0.0000 N   0  0  0  0  0  0  0  0  0  0  0  0
    1.7125   -2.0178    0.0000 C   0  0  0  0  0  0  0  0  0  0  0  0
    3.0199   -2.7530    0.0000 C   0  0  0  0  0  0  0  0  0  0  0  0
    4.4643   -2.3484    0.0000 C   0  0  0  0  0  0  0  0  0  0  0  0
    5.1995   -1.0409    0.0000 C   0  0  0  0  0  0  0  0  0  0  0  0
    4.7949    0.4035    0.0000 C   0  0  0  0  0  0  0  0  0  0  0  0
    3.4874    1.1387    0.0000 C   0  0  0  0  0  0  0  0  0  0  0  0
    2.0430    0.7341    0.0000 C   0  0  0  0  0  0  0  0  0  0  0  0
   -1.0811   -1.5948    0.0000 C   0  0  0  0  0  0  0  0  0  0  0  0
  1  2  1  0
  2  3  2  0
  2  4  1  0
  4  5  1  0
  5  6  1  0
  6  7  1  0
  6  8  1  0
  8  9  1  0
  9 10  1  0
 10 11  2  0
 10 12  1  0
  8 13  1  0
 13 14  1  0
 14 15  1  0
 15 16  1  0
 16 17  1  0
 17 18  1  0
 18 19  1  0
 19 20  1  0
 20 21  1  0
 13 22  1  0
  4 22  2  0
 21 14  1  0
M  END
>  <IC50>  (439) 
0.026

>  <cmpdNO>  (439) 
1188

$$$$

     RDKit          2D

 23 24  0  0  0  0  0  0  0  0999 V2000
    5.0466    2.6831    0.0000 O   0  0  0  0  0  0  0  0  0  0  0  0
    3.5495    2.7769    0.0000 C   0  0  0  0  0  0  0  0  0  0  0  0
    2.8822    4.1203    0.0000 O   0  0  0  0  0  0  0  0  0  0  0  0
    2.7198    1.5273    0.0000 C   0  0  0  0  0  0  0  0  0  0  0  0
    3.3871    0.1839    0.0000 C   0  0  0  0  0  0  0  0  0  0  0  0
    2.5573   -1.0657    0.0000 C   0  0  0  0  0  0  0  0  0  0  0  0
    3.2246   -2.4091    0.0000 N   0  0  0  0  0  0  0  0  0  0  0  0
    1.0603   -0.9719    0.0000 C   0  0  0  0  0  0  0  0  0  0  0  0
    0.2305   -2.2215    0.0000 N   0  0  0  0  0  0  0  0  0  0  0  0
    0.8978   -3.5649    0.0000 C   0  0  0  0  0  0  0  0  0  0  0  0
    2.3949   -3.6587    0.0000 O   0  0  0  0  0  0  0  0  0  0  0  0
    0.0680   -4.8145    0.0000 C   0  0  0  0  0  0  0  0  0  0  0  0
    0.3929    0.3715    0.0000 C   0  0  0  0  0  0  0  0  0  0  0  0
   -1.1041    0.4653    0.0000 N   0  0  0  0  0  0  0  0  0  0  0  0
   -1.7043   -0.9094    0.0000 C   0  0  0  0  0  0  0  0  0  0  0  0
   -3.0477   -1.5767    0.0000 C   0  0  0  0  0  0  0  0  0  0  0  0
   -4.5057   -1.2244    0.0000 C   0  0  0  0  0  0  0  0  0  0  0  0
   -5.3962   -0.0173    0.0000 C   0  0  0  0  0  0  0  0  0  0  0  0
   -5.3024    1.4798    0.0000 C   0  0  0  0  0  0  0  0  0  0  0  0
   -4.2682    2.5663    0.0000 C   0  0  0  0  0  0  0  0  0  0  0  0
   -2.7776    2.7339    0.0000 C   0  0  0  0  0  0  0  0  0  0  0  0
   -1.5280    1.9042    0.0000 C   0  0  0  0  0  0  0  0  0  0  0  0
    1.2227    1.6211    0.0000 C   0  0  0  0  0  0  0  0  0  0  0  0
  1  2  1  0
  2  3  2  0
  2  4  1  0
  4  5  1  0
  5  6  1  0
  6  7  1  0
  6  8  1  0
  8  9  1  0
  9 10  1  0
 10 11  2  0
 10 12  1  0
  8 13  1  0
 13 14  1  0
 14 15  1  0
 15 16  1  0
 16 17  1  0
 17 18  1  0
 18 19  1  0
 19 20  1  0
 20 21  1  0
 21 22  1  0
 13 23  1  0
  4 23  2  0
 22 14  1  0
M  END
>  <IC50>  (440) 
0.075

>  <cmpdNO>  (440) 
1189

$$$$

     RDKit          2D

 22 23  0  0  0  0  0  0  0  0999 V2000
   -4.7535   -2.9060    0.0000 O   0  0  0  0  0  0  0  0  0  0  0  0
   -3.2535   -2.9129    0.0000 C   0  0  0  0  0  0  0  0  0  0  0  0
   -2.5095   -4.2154    0.0000 O   0  0  0  0  0  0  0  0  0  0  0  0
   -2.4975   -1.6174    0.0000 C   0  0  0  0  0  0  0  0  0  0  0  0
   -3.2415   -0.3149    0.0000 C   0  0  0  0  0  0  0  0  0  0  0  0
   -2.4856    0.9807    0.0000 C   0  0  0  0  0  0  0  0  0  0  0  0
   -3.2296    2.2832    0.0000 N   0  0  0  0  0  0  0  0  0  0  0  0
   -0.9856    0.9738    0.0000 C   0  0  0  0  0  0  0  0  0  0  0  0
   -0.2296    2.2693    0.0000 N   0  0  0  0  0  0  0  0  0  0  0  0
   -0.9736    3.5718    0.0000 C   0  0  0  0  0  0  0  0  0  0  0  0
   -2.4736    3.5787    0.0000 O   0  0  0  0  0  0  0  0  0  0  0  0
   -0.2176    4.8674    0.0000 C   0  0  0  0  0  0  0  0  0  0  0  0
   -0.2416   -0.3287    0.0000 C   0  0  0  0  0  0  0  0  0  0  0  0
    1.2584   -0.3356    0.0000 N   0  0  0  0  0  0  0  0  0  0  0  0
    2.3142   -1.4012    0.0000 C   0  0  0  0  0  0  0  0  0  0  0  0
    3.3797   -0.3454    0.0000 C   0  0  0  0  0  0  0  0  0  0  0  0
    2.3239    0.7201    0.0000 C   0  0  0  0  0  0  0  0  0  0  0  0
    4.4452    0.7104    0.0000 C   0  0  0  0  0  0  0  0  0  0  0  0
    5.8923    0.3154    0.0000 C   0  0  0  0  0  0  0  0  0  0  0  0
    4.4355   -1.4109    0.0000 C   0  0  0  0  0  0  0  0  0  0  0  0
    4.0406   -2.8580    0.0000 C   0  0  0  0  0  0  0  0  0  0  0  0
   -0.9976   -1.6243    0.0000 C   0  0  0  0  0  0  0  0  0  0  0  0
  1  2  1  0
  2  3  2  0
  2  4  1  0
  4  5  1  0
  5  6  1  0
  6  7  1  0
  6  8  1  0
  8  9  1  0
  9 10  1  0
 10 11  2  0
 10 12  1  0
  8 13  1  0
 13 14  1  0
 14 15  1  0
 15 16  1  0
 16 17  1  0
 16 18  1  0
 18 19  1  0
 16 20  1  0
 20 21  1  0
 13 22  1  0
  4 22  2  0
 17 14  1  0
M  END
>  <IC50>  (441) 
0.265

>  <cmpdNO>  (441) 
1190

$$$$

     RDKit          2D

 20 21  0  0  0  0  0  0  0  0999 V2000
   -4.1563   -2.5166    0.0000 O   0  0  0  0  0  0  0  0  0  0  0  0
   -4.0471   -1.0206    0.0000 C   0  0  0  0  0  0  0  0  0  0  0  0
   -2.6969   -0.3671    0.0000 C   0  0  0  0  0  0  0  0  0  0  0  0
   -1.4559   -1.2097    0.0000 N   0  0  0  0  0  0  0  0  0  0  0  0
   -1.5651   -2.7057    0.0000 C   0  0  0  0  0  0  0  0  0  0  0  0
   -2.9153   -3.3592    0.0000 C   0  0  0  0  0  0  0  0  0  0  0  0
   -0.1057   -0.5563    0.0000 C   0  0  0  0  0  0  0  0  0  0  0  0
    1.1353   -1.3989    0.0000 C   0  0  0  0  0  0  0  0  0  0  0  0
    2.4854   -0.7454    0.0000 C   0  0  0  0  0  0  0  0  0  0  0  0
    2.5947    0.7506    0.0000 C   0  0  0  0  0  0  0  0  0  0  0  0
    1.3537    1.5932    0.0000 C   0  0  0  0  0  0  0  0  0  0  0  0
    1.4629    3.0892    0.0000 N   0  0  0  0  0  0  0  0  0  0  0  0
    0.0035    0.9397    0.0000 C   0  0  0  0  0  0  0  0  0  0  0  0
   -1.2375    1.7823    0.0000 N   0  0  0  0  0  0  0  0  0  0  0  0
   -1.1283    3.2783    0.0000 C   0  0  0  0  0  0  0  0  0  0  0  0
    0.2219    3.9318    0.0000 O   0  0  0  0  0  0  0  0  0  0  0  0
   -2.3693    4.1209    0.0000 C   0  0  0  0  0  0  0  0  0  0  0  0
    3.7264   -1.5880    0.0000 C   0  0  0  0  0  0  0  0  0  0  0  0
    3.6172   -3.0840    0.0000 O   0  0  0  0  0  0  0  0  0  0  0  0
    5.0766   -0.9346    0.0000 O   0  0  0  0  0  0  0  0  0  0  0  0
  1  2  1  0
  2  3  1  0
  3  4  1  0
  4  5  1  0
  5  6  1  0
  4  7  1  0
  7  8  1  0
  8  9  2  0
  9 10  1  0
 10 11  1  0
 11 12  1  0
 11 13  1  0
 13 14  1  0
 14 15  1  0
 15 16  2  0
 15 17  1  0
  9 18  1  0
 18 19  1  0
 18 20  2  0
  6  1  1  0
 13  7  1  0
M  END
>  <IC50>  (442) 
0.26

>  <cmpdNO>  (442) 
1191

$$$$

     RDKit          2D

 21 22  0  0  0  0  0  0  0  0999 V2000
   -4.8786   -2.3057    0.0000 O   0  0  0  0  0  0  0  0  0  0  0  0
   -3.3966   -2.5372    0.0000 C   0  0  0  0  0  0  0  0  0  0  0  0
   -2.8561   -3.9365    0.0000 O   0  0  0  0  0  0  0  0  0  0  0  0
   -2.4551   -1.3695    0.0000 C   0  0  0  0  0  0  0  0  0  0  0  0
   -2.9956    0.0297    0.0000 C   0  0  0  0  0  0  0  0  0  0  0  0
   -2.0541    1.1974    0.0000 C   0  0  0  0  0  0  0  0  0  0  0  0
   -2.5946    2.5967    0.0000 N   0  0  0  0  0  0  0  0  0  0  0  0
   -0.5721    0.9659    0.0000 C   0  0  0  0  0  0  0  0  0  0  0  0
    0.3695    2.1336    0.0000 N   0  0  0  0  0  0  0  0  0  0  0  0
   -0.1710    3.5328    0.0000 C   0  0  0  0  0  0  0  0  0  0  0  0
   -1.6531    3.7644    0.0000 O   0  0  0  0  0  0  0  0  0  0  0  0
    0.7705    4.7005    0.0000 C   0  0  0  0  0  0  0  0  0  0  0  0
   -0.0316   -0.4333    0.0000 C   0  0  0  0  0  0  0  0  0  0  0  0
    1.4505   -0.6649    0.0000 N   0  0  0  0  0  0  0  0  0  0  0  0
    1.9910   -2.0641    0.0000 C   0  0  0  0  0  0  0  0  0  0  0  0
    3.4730   -2.2956    0.0000 C   0  0  0  0  0  0  0  0  0  0  0  0
    4.4145   -1.1279    0.0000 C   0  0  0  0  0  0  0  0  0  0  0  0
    3.8740    0.2713    0.0000 C   0  0  0  0  0  0  0  0  0  0  0  0
    2.3920    0.5028    0.0000 C   0  0  0  0  0  0  0  0  0  0  0  0
    5.8965   -1.3595    0.0000 C   0  0  0  0  0  0  0  0  0  0  0  0
   -0.9731   -1.6010    0.0000 C   0  0  0  0  0  0  0  0  0  0  0  0
  1  2  1  0
  2  3  2  0
  2  4  1  0
  4  5  1  0
  5  6  1  0
  6  7  1  0
  6  8  1  0
  8  9  1  0
  9 10  1  0
 10 11  2  0
 10 12  1  0
  8 13  1  0
 13 14  1  0
 14 15  1  0
 15 16  1  0
 16 17  1  0
 17 18  1  0
 18 19  1  0
 17 20  1  0
 13 21  1  0
  4 21  2  0
 19 14  1  0
M  END
>  <IC50>  (443) 
0.051

>  <cmpdNO>  (443) 
1192

$$$$

     RDKit          2D

 22 23  0  0  0  0  0  0  0  0999 V2000
   -4.7075   -3.0552    0.0000 O   0  0  0  0  0  0  0  0  0  0  0  0
   -3.2079   -3.0227    0.0000 C   0  0  0  0  0  0  0  0  0  0  0  0
   -2.4299   -4.3051    0.0000 O   0  0  0  0  0  0  0  0  0  0  0  0
   -2.4863   -1.7077    0.0000 C   0  0  0  0  0  0  0  0  0  0  0  0
   -3.2643   -0.4252    0.0000 C   0  0  0  0  0  0  0  0  0  0  0  0
   -2.5426    0.8898    0.0000 C   0  0  0  0  0  0  0  0  0  0  0  0
   -3.3207    2.1722    0.0000 N   0  0  0  0  0  0  0  0  0  0  0  0
   -1.0430    0.9223    0.0000 C   0  0  0  0  0  0  0  0  0  0  0  0
   -0.3214    2.2373    0.0000 N   0  0  0  0  0  0  0  0  0  0  0  0
   -1.0994    3.5198    0.0000 C   0  0  0  0  0  0  0  0  0  0  0  0
   -2.5990    3.4872    0.0000 O   0  0  0  0  0  0  0  0  0  0  0  0
   -0.3777    4.8348    0.0000 C   0  0  0  0  0  0  0  0  0  0  0  0
   -0.2650   -0.3601    0.0000 C   0  0  0  0  0  0  0  0  0  0  0  0
    1.2347   -0.3276    0.0000 N   0  0  0  0  0  0  0  0  0  0  0  0
    2.0127   -1.6100    0.0000 C   0  0  0  0  0  0  0  0  0  0  0  0
    3.5123   -1.5775    0.0000 C   0  0  0  0  0  0  0  0  0  0  0  0
    4.2340   -0.2625    0.0000 C   0  0  0  0  0  0  0  0  0  0  0  0
    3.4559    1.0200    0.0000 C   0  0  0  0  0  0  0  0  0  0  0  0
    1.9563    0.9874    0.0000 C   0  0  0  0  0  0  0  0  0  0  0  0
    5.7336   -0.2299    0.0000 C   0  0  0  0  0  0  0  0  0  0  0  0
    6.5116   -1.5124    0.0000 C   0  0  0  0  0  0  0  0  0  0  0  0
   -0.9866   -1.6751    0.0000 C   0  0  0  0  0  0  0  0  0  0  0  0
  1  2  1  0
  2  3  2  0
  2  4  1  0
  4  5  1  0
  5  6  1  0
  6  7  1  0
  6  8  1  0
  8  9  1  0
  9 10  1  0
 10 11  2  0
 10 12  1  0
  8 13  1  0
 13 14  1  0
 14 15  1  0
 15 16  1  0
 16 17  1  0
 17 18  1  0
 18 19  1  0
 17 20  1  0
 20 21  1  0
 13 22  1  0
  4 22  2  0
 19 14  1  0
M  END
>  <IC50>  (444) 
0.052

>  <cmpdNO>  (444) 
1193

$$$$

     RDKit          2D

 23 24  0  0  0  0  0  0  0  0999 V2000
   -4.8289   -3.3450    0.0000 O   0  0  0  0  0  0  0  0  0  0  0  0
   -3.3354   -3.2052    0.0000 C   0  0  0  0  0  0  0  0  0  0  0  0
   -2.4676   -4.4287    0.0000 O   0  0  0  0  0  0  0  0  0  0  0  0
   -2.7097   -1.8419    0.0000 C   0  0  0  0  0  0  0  0  0  0  0  0
   -3.5775   -0.6184    0.0000 C   0  0  0  0  0  0  0  0  0  0  0  0
   -2.9518    0.7448    0.0000 C   0  0  0  0  0  0  0  0  0  0  0  0
   -3.8196    1.9683    0.0000 N   0  0  0  0  0  0  0  0  0  0  0  0
   -1.4583    0.8846    0.0000 C   0  0  0  0  0  0  0  0  0  0  0  0
   -0.8326    2.2479    0.0000 N   0  0  0  0  0  0  0  0  0  0  0  0
   -1.7004    3.4714    0.0000 C   0  0  0  0  0  0  0  0  0  0  0  0
   -3.1939    3.3316    0.0000 O   0  0  0  0  0  0  0  0  0  0  0  0
   -1.0747    4.8346    0.0000 C   0  0  0  0  0  0  0  0  0  0  0  0
   -0.5906   -0.3389    0.0000 C   0  0  0  0  0  0  0  0  0  0  0  0
    0.9029   -0.1991    0.0000 N   0  0  0  0  0  0  0  0  0  0  0  0
    1.7707   -1.4226    0.0000 C   0  0  0  0  0  0  0  0  0  0  0  0
    3.2642   -1.2829    0.0000 C   0  0  0  0  0  0  0  0  0  0  0  0
    3.8899    0.0804    0.0000 C   0  0  0  0  0  0  0  0  0  0  0  0
    3.0221    1.3039    0.0000 C   0  0  0  0  0  0  0  0  0  0  0  0
    1.5286    1.1641    0.0000 C   0  0  0  0  0  0  0  0  0  0  0  0
    5.3833    0.2202    0.0000 C   0  0  0  0  0  0  0  0  0  0  0  0
    6.2511   -1.0033    0.0000 C   0  0  0  0  0  0  0  0  0  0  0  0
    7.7446   -0.8635    0.0000 C   0  0  0  0  0  0  0  0  0  0  0  0
   -1.2162   -1.7022    0.0000 C   0  0  0  0  0  0  0  0  0  0  0  0
  1  2  1  0
  2  3  2  0
  2  4  1  0
  4  5  1  0
  5  6  1  0
  6  7  1  0
  6  8  1  0
  8  9  1  0
  9 10  1  0
 10 11  2  0
 10 12  1  0
  8 13  1  0
 13 14  1  0
 14 15  1  0
 15 16  1  0
 16 17  1  0
 17 18  1  0
 18 19  1  0
 17 20  1  0
 20 21  1  0
 21 22  1  0
 13 23  1  0
  4 23  2  0
 19 14  1  0
M  END
>  <IC50>  (445) 
0.04

>  <cmpdNO>  (445) 
1194

$$$$

     RDKit          2D

 22 24  0  0  0  0  0  0  0  0999 V2000
   -5.1284   -1.0155    0.0000 O   0  0  0  0  0  0  0  0  0  0  0  0
   -3.7589   -1.6274    0.0000 C   0  0  0  0  0  0  0  0  0  0  0  0
   -3.6040   -3.1193    0.0000 O   0  0  0  0  0  0  0  0  0  0  0  0
   -2.5442   -0.7473    0.0000 C   0  0  0  0  0  0  0  0  0  0  0  0
   -2.6990    0.7447    0.0000 C   0  0  0  0  0  0  0  0  0  0  0  0
   -1.4843    1.6248    0.0000 C   0  0  0  0  0  0  0  0  0  0  0  0
   -1.6392    3.1168    0.0000 N   0  0  0  0  0  0  0  0  0  0  0  0
   -0.1148    1.0129    0.0000 C   0  0  0  0  0  0  0  0  0  0  0  0
    1.0999    1.8930    0.0000 N   0  0  0  0  0  0  0  0  0  0  0  0
    0.9450    3.3850    0.0000 C   0  0  0  0  0  0  0  0  0  0  0  0
   -0.4245    3.9969    0.0000 O   0  0  0  0  0  0  0  0  0  0  0  0
    2.1597    4.2650    0.0000 C   0  0  0  0  0  0  0  0  0  0  0  0
    0.0400   -0.4791    0.0000 C   0  0  0  0  0  0  0  0  0  0  0  0
    1.4095   -1.0910    0.0000 N   0  0  0  0  0  0  0  0  0  0  0  0
    2.6242   -0.2109    0.0000 C   0  0  0  0  0  0  0  0  0  0  0  0
    1.1326   -0.0522    0.0000 C   0  0  0  0  0  0  0  0  0  0  0  0
    0.5207   -1.4217    0.0000 C   0  0  0  0  0  0  0  0  0  0  0  0
    1.5643   -2.5830    0.0000 C   0  0  0  0  0  0  0  0  0  0  0  0
    2.9339   -3.1949    0.0000 C   0  0  0  0  0  0  0  0  0  0  0  0
    4.1485   -2.3148    0.0000 C   0  0  0  0  0  0  0  0  0  0  0  0
    3.9937   -0.8228    0.0000 C   0  0  0  0  0  0  0  0  0  0  0  0
   -1.1747   -1.3592    0.0000 C   0  0  0  0  0  0  0  0  0  0  0  0
  1  2  1  0
  2  3  2  0
  2  4  1  0
  4  5  1  0
  5  6  1  0
  6  7  1  0
  6  8  1  0
  8  9  1  0
  9 10  1  0
 10 11  2  0
 10 12  1  0
  8 13  1  0
 13 14  1  0
 14 15  1  0
 15 16  1  0
 16 17  1  0
 17 18  1  0
 18 19  1  0
 19 20  1  0
 20 21  1  0
 13 22  1  0
  4 22  2  0
 18 14  1  0
 21 15  1  0
M  END
>  <IC50>  (446) 
0.032

>  <cmpdNO>  (446) 
1195

$$$$

     RDKit          2D

 23 24  0  0  0  0  0  0  0  0999 V2000
    4.9645    1.6986    0.0000 O   0  0  0  0  0  0  0  0  0  0  0  0
    3.5038    2.0399    0.0000 C   0  0  0  0  0  0  0  0  0  0  0  0
    3.0691    3.4755    0.0000 O   0  0  0  0  0  0  0  0  0  0  0  0
    2.4779    0.9456    0.0000 C   0  0  0  0  0  0  0  0  0  0  0  0
    2.9126   -0.4900    0.0000 C   0  0  0  0  0  0  0  0  0  0  0  0
    1.8867   -1.5843    0.0000 C   0  0  0  0  0  0  0  0  0  0  0  0
    2.3215   -3.0200    0.0000 N   0  0  0  0  0  0  0  0  0  0  0  0
    0.4261   -1.2430    0.0000 C   0  0  0  0  0  0  0  0  0  0  0  0
   -0.5998   -2.3373    0.0000 N   0  0  0  0  0  0  0  0  0  0  0  0
   -0.1651   -3.7729    0.0000 C   0  0  0  0  0  0  0  0  0  0  0  0
    1.2955   -4.1143    0.0000 O   0  0  0  0  0  0  0  0  0  0  0  0
   -1.1910   -4.8672    0.0000 C   0  0  0  0  0  0  0  0  0  0  0  0
   -0.0087    0.1926    0.0000 C   0  0  0  0  0  0  0  0  0  0  0  0
   -1.4693    0.5339    0.0000 N   0  0  0  0  0  0  0  0  0  0  0  0
   -2.4106   -0.6340    0.0000 C   0  0  0  0  0  0  0  0  0  0  0  0
   -3.9106   -0.6262    0.0000 C   0  0  0  0  0  0  0  0  0  0  0  0
   -4.8397    0.5513    0.0000 C   0  0  0  0  0  0  0  0  0  0  0  0
   -4.4984    2.0120    0.0000 C   0  0  0  0  0  0  0  0  0  0  0  0
   -3.1436    2.6558    0.0000 C   0  0  0  0  0  0  0  0  0  0  0  0
   -1.7955    1.9980    0.0000 C   0  0  0  0  0  0  0  0  0  0  0  0
   -0.6180    2.9272    0.0000 C   0  0  0  0  0  0  0  0  0  0  0  0
    0.7755    2.3720    0.0000 O   0  0  0  0  0  0  0  0  0  0  0  0
    1.0173    1.2869    0.0000 C   0  0  0  0  0  0  0  0  0  0  0  0
  1  2  1  0
  2  3  2  0
  2  4  1  0
  4  5  1  0
  5  6  1  0
  6  7  1  0
  6  8  1  0
  8  9  1  0
  9 10  1  0
 10 11  2  0
 10 12  1  0
  8 13  1  0
 13 14  1  0
 14 15  1  0
 15 16  1  0
 16 17  1  0
 17 18  1  0
 18 19  1  0
 19 20  1  0
 20 21  1  0
 21 22  1  0
 13 23  1  0
  4 23  2  0
 20 14  1  0
M  END
>  <IC50>  (447) 
0.008

>  <cmpdNO>  (447) 
1196

$$$$

     RDKit          2D

 18 18  0  0  0  0  0  0  0  0999 V2000
    1.6128   -0.5678    0.0000 S   0  0  0  0  0  0  0  0  0  0  0  0
    1.8265   -2.0525    0.0000 C   0  0  0  0  0  0  0  0  0  0  0  0
    3.2191   -2.6098    0.0000 C   0  0  0  0  0  0  0  0  0  0  0  0
    3.4327   -4.0945    0.0000 C   0  0  0  0  0  0  0  0  0  0  0  0
    0.2202   -0.0104    0.0000 C   0  0  0  0  0  0  0  0  0  0  0  0
   -0.9588   -0.9378    0.0000 C   0  0  0  0  0  0  0  0  0  0  0  0
   -2.3514   -0.3804    0.0000 C   0  0  0  0  0  0  0  0  0  0  0  0
   -2.5650    1.1043    0.0000 C   0  0  0  0  0  0  0  0  0  0  0  0
   -1.3860    2.0317    0.0000 C   0  0  0  0  0  0  0  0  0  0  0  0
   -1.5996    3.5164    0.0000 N   0  0  0  0  0  0  0  0  0  0  0  0
    0.0066    1.4743    0.0000 C   0  0  0  0  0  0  0  0  0  0  0  0
    1.1856    2.4017    0.0000 N   0  0  0  0  0  0  0  0  0  0  0  0
    2.5782    1.8443    0.0000 C   0  0  0  0  0  0  0  0  0  0  0  0
    2.7918    0.3596    0.0000 O   0  0  0  0  0  0  0  0  0  0  0  0
    3.7572    2.7717    0.0000 C   0  0  0  0  0  0  0  0  0  0  0  0
   -3.5303   -1.3078    0.0000 C   0  0  0  0  0  0  0  0  0  0  0  0
   -4.9230   -0.7504    0.0000 O   0  0  0  0  0  0  0  0  0  0  0  0
   -3.3167   -2.7925    0.0000 O   0  0  0  0  0  0  0  0  0  0  0  0
  1  2  1  0
  2  3  1  0
  3  4  1  0
  1  5  1  0
  5  6  1  0
  6  7  2  0
  7  8  1  0
  8  9  1  0
  9 10  1  0
  9 11  1  0
 11 12  1  0
 12 13  1  0
 13 14  2  0
 13 15  1  0
  7 16  1  0
 16 17  1  0
 16 18  2  0
 11  5  1  0
M  END
>  <IC50>  (448) 
0.212

>  <cmpdNO>  (448) 
1203

$$$$

     RDKit          2D

 18 18  0  0  0  0  0  0  0  0999 V2000
   -4.9230   -0.7504    0.0000 O   0  0  0  0  0  0  0  0  0  0  0  0
   -3.5303   -1.3078    0.0000 C   0  0  0  0  0  0  0  0  0  0  0  0
   -3.3167   -2.7925    0.0000 O   0  0  0  0  0  0  0  0  0  0  0  0
   -2.3514   -0.3804    0.0000 C   0  0  0  0  0  0  0  0  0  0  0  0
   -2.5650    1.1043    0.0000 C   0  0  0  0  0  0  0  0  0  0  0  0
   -1.3860    2.0317    0.0000 C   0  0  0  0  0  0  0  0  0  0  0  0
   -1.5996    3.5164    0.0000 N   0  0  0  0  0  0  0  0  0  0  0  0
    0.0066    1.4743    0.0000 C   0  0  0  0  0  0  0  0  0  0  0  0
    1.1856    2.4017    0.0000 N   0  0  0  0  0  0  0  0  0  0  0  0
    2.5782    1.8443    0.0000 C   0  0  0  0  0  0  0  0  0  0  0  0
    2.7918    0.3596    0.0000 O   0  0  0  0  0  0  0  0  0  0  0  0
    3.7572    2.7717    0.0000 C   0  0  0  0  0  0  0  0  0  0  0  0
    0.2202   -0.0104    0.0000 C   0  0  0  0  0  0  0  0  0  0  0  0
   -0.9588   -0.9378    0.0000 C   0  0  0  0  0  0  0  0  0  0  0  0
    1.6128   -0.5678    0.0000 C   0  0  0  0  0  0  0  0  0  0  0  0
    1.8265   -2.0525    0.0000 C   0  0  0  0  0  0  0  0  0  0  0  0
    3.2191   -2.6098    0.0000 C   0  0  0  0  0  0  0  0  0  0  0  0
    3.4327   -4.0945    0.0000 C   0  0  0  0  0  0  0  0  0  0  0  0
  1  2  1  0
  2  3  2  0
  2  4  1  0
  4  5  1  0
  5  6  1  0
  6  7  1  0
  6  8  1  0
  8  9  1  0
  9 10  1  0
 10 11  2  0
 10 12  1  0
  8 13  1  0
 13 14  1  0
 13 15  1  0
 15 16  1  0
 16 17  1  0
 17 18  1  0
  4 14  2  0
M  END
>  <IC50>  (449) 
0.22

>  <cmpdNO>  (449) 
1204

$$$$

     RDKit          2D

 19 19  0  0  0  0  0  0  0  0999 V2000
    0.6807   -4.8337    0.0000 O   0  0  0  0  0  0  0  0  0  0  0  0
    1.3853   -3.5095    0.0000 C   0  0  0  0  0  0  0  0  0  0  0  0
    2.8844   -3.4576    0.0000 O   0  0  0  0  0  0  0  0  0  0  0  0
    0.5909   -2.2371    0.0000 C   0  0  0  0  0  0  0  0  0  0  0  0
   -0.9082   -2.2890    0.0000 C   0  0  0  0  0  0  0  0  0  0  0  0
   -1.7027   -1.0167    0.0000 C   0  0  0  0  0  0  0  0  0  0  0  0
   -3.2018   -1.0685    0.0000 N   0  0  0  0  0  0  0  0  0  0  0  0
   -0.9981    0.3075    0.0000 C   0  0  0  0  0  0  0  0  0  0  0  0
   -1.7925    1.5799    0.0000 N   0  0  0  0  0  0  0  0  0  0  0  0
   -3.2916    1.5280    0.0000 C   0  0  0  0  0  0  0  0  0  0  0  0
   -3.9963    0.2038    0.0000 O   0  0  0  0  0  0  0  0  0  0  0  0
   -4.0861    2.8003    0.0000 C   0  0  0  0  0  0  0  0  0  0  0  0
    0.5010    0.3594    0.0000 C   0  0  0  0  0  0  0  0  0  0  0  0
    1.2057    1.6836    0.0000 N   0  0  0  0  0  0  0  0  0  0  0  0
    2.7048    1.7355    0.0000 C   0  0  0  0  0  0  0  0  0  0  0  0
    3.4094    3.0597    0.0000 C   0  0  0  0  0  0  0  0  0  0  0  0
    4.9085    3.1115    0.0000 C   0  0  0  0  0  0  0  0  0  0  0  0
    0.4112    2.9559    0.0000 C   0  0  0  0  0  0  0  0  0  0  0  0
    1.2955   -0.9129    0.0000 C   0  0  0  0  0  0  0  0  0  0  0  0
  1  2  1  0
  2  3  2  0
  2  4  1  0
  4  5  1  0
  5  6  1  0
  6  7  1  0
  6  8  1  0
  8  9  1  0
  9 10  1  0
 10 11  2  0
 10 12  1  0
  8 13  1  0
 13 14  1  0
 14 15  1  0
 15 16  1  0
 16 17  1  0
 14 18  1  0
 13 19  1  0
  4 19  2  0
M  END
>  <IC50>  (450) 
0.065

>  <cmpdNO>  (450) 
1205

$$$$

     RDKit          2D

 20 20  0  0  0  0  0  0  0  0999 V2000
    4.5000   -2.3383    0.0000 O   0  0  0  0  0  0  0  0  0  0  0  0
    3.7500   -1.0392    0.0000 C   0  0  0  0  0  0  0  0  0  0  0  0
    4.5000    0.2598    0.0000 O   0  0  0  0  0  0  0  0  0  0  0  0
    2.2500   -1.0392    0.0000 C   0  0  0  0  0  0  0  0  0  0  0  0
    1.5000   -2.3383    0.0000 C   0  0  0  0  0  0  0  0  0  0  0  0
   -0.0000   -2.3383    0.0000 C   0  0  0  0  0  0  0  0  0  0  0  0
   -0.7500   -3.6373    0.0000 N   0  0  0  0  0  0  0  0  0  0  0  0
   -0.7500   -1.0392    0.0000 C   0  0  0  0  0  0  0  0  0  0  0  0
   -2.2500   -1.0392    0.0000 N   0  0  0  0  0  0  0  0  0  0  0  0
   -3.0000   -2.3383    0.0000 C   0  0  0  0  0  0  0  0  0  0  0  0
   -2.2500   -3.6373    0.0000 O   0  0  0  0  0  0  0  0  0  0  0  0
   -4.5000   -2.3383    0.0000 C   0  0  0  0  0  0  0  0  0  0  0  0
    0.0000    0.2598    0.0000 C   0  0  0  0  0  0  0  0  0  0  0  0
   -0.7500    1.5588    0.0000 N   0  0  0  0  0  0  0  0  0  0  0  0
    0.0000    2.8579    0.0000 C   0  0  0  0  0  0  0  0  0  0  0  0
   -0.7500    4.1569    0.0000 C   0  0  0  0  0  0  0  0  0  0  0  0
   -0.0000    5.4560    0.0000 C   0  0  0  0  0  0  0  0  0  0  0  0
   -0.7500    6.7550    0.0000 C   0  0  0  0  0  0  0  0  0  0  0  0
   -2.2500    1.5588    0.0000 C   0  0  0  0  0  0  0  0  0  0  0  0
    1.5000    0.2598    0.0000 C   0  0  0  0  0  0  0  0  0  0  0  0
  1  2  1  0
  2  3  2  0
  2  4  1  0
  4  5  1  0
  5  6  1  0
  6  7  1  0
  6  8  1  0
  8  9  1  0
  9 10  1  0
 10 11  2  0
 10 12  1  0
  8 13  1  0
 13 14  1  0
 14 15  1  0
 15 16  1  0
 16 17  1  0
 17 18  1  0
 14 19  1  0
 13 20  1  0
  4 20  2  0
M  END
>  <IC50>  (451) 
0.18

>  <cmpdNO>  (451) 
1206

$$$$

     RDKit          2D

 21 21  0  0  0  0  0  0  0  0999 V2000
   -0.1306   -4.8863    0.0000 O   0  0  0  0  0  0  0  0  0  0  0  0
    0.6817   -3.6252    0.0000 C   0  0  0  0  0  0  0  0  0  0  0  0
    2.1799   -3.6982    0.0000 O   0  0  0  0  0  0  0  0  0  0  0  0
   -0.0043   -2.2913    0.0000 C   0  0  0  0  0  0  0  0  0  0  0  0
   -1.5025   -2.2184    0.0000 C   0  0  0  0  0  0  0  0  0  0  0  0
   -2.1884   -0.8844    0.0000 C   0  0  0  0  0  0  0  0  0  0  0  0
   -3.6867   -0.8115    0.0000 N   0  0  0  0  0  0  0  0  0  0  0  0
   -1.3762    0.3766    0.0000 C   0  0  0  0  0  0  0  0  0  0  0  0
   -2.0621    1.7106    0.0000 N   0  0  0  0  0  0  0  0  0  0  0  0
   -3.5604    1.7835    0.0000 C   0  0  0  0  0  0  0  0  0  0  0  0
   -4.3726    0.5225    0.0000 O   0  0  0  0  0  0  0  0  0  0  0  0
   -4.2463    3.1175    0.0000 C   0  0  0  0  0  0  0  0  0  0  0  0
    0.1221    0.3037    0.0000 C   0  0  0  0  0  0  0  0  0  0  0  0
    0.9343    1.5648    0.0000 N   0  0  0  0  0  0  0  0  0  0  0  0
    2.4325    1.4918    0.0000 C   0  0  0  0  0  0  0  0  0  0  0  0
    3.2448    2.7529    0.0000 C   0  0  0  0  0  0  0  0  0  0  0  0
    4.7430    2.6799    0.0000 C   0  0  0  0  0  0  0  0  0  0  0  0
    3.1185    0.1579    0.0000 C   0  0  0  0  0  0  0  0  0  0  0  0
    4.6167    0.0849    0.0000 C   0  0  0  0  0  0  0  0  0  0  0  0
    0.2484    2.8987    0.0000 C   0  0  0  0  0  0  0  0  0  0  0  0
    0.8080   -1.0302    0.0000 C   0  0  0  0  0  0  0  0  0  0  0  0
  1  2  1  0
  2  3  2  0
  2  4  1  0
  4  5  1  0
  5  6  1  0
  6  7  1  0
  6  8  1  0
  8  9  1  0
  9 10  1  0
 10 11  2  0
 10 12  1  0
  8 13  1  0
 13 14  1  0
 14 15  1  0
 15 16  1  0
 16 17  1  0
 15 18  1  0
 18 19  1  0
 14 20  1  0
 13 21  1  0
  4 21  2  0
M  END
>  <IC50>  (452) 
0.006

>  <cmpdNO>  (452) 
1207

$$$$

     RDKit          2D

 24 25  0  0  0  0  0  0  0  0999 V2000
   -2.9225   -4.7081    0.0000 O   0  0  0  0  0  0  0  0  0  0  0  0
   -1.7338   -3.7932    0.0000 C   0  0  0  0  0  0  0  0  0  0  0  0
   -0.3471   -4.3652    0.0000 O   0  0  0  0  0  0  0  0  0  0  0  0
   -1.9317   -2.3063    0.0000 C   0  0  0  0  0  0  0  0  0  0  0  0
   -3.3184   -1.7343    0.0000 C   0  0  0  0  0  0  0  0  0  0  0  0
   -3.5163   -0.2475    0.0000 C   0  0  0  0  0  0  0  0  0  0  0  0
   -4.9030    0.3246    0.0000 N   0  0  0  0  0  0  0  0  0  0  0  0
   -2.3276    0.6674    0.0000 C   0  0  0  0  0  0  0  0  0  0  0  0
   -2.5256    2.1543    0.0000 N   0  0  0  0  0  0  0  0  0  0  0  0
   -3.9122    2.7263    0.0000 C   0  0  0  0  0  0  0  0  0  0  0  0
   -5.1009    1.8114    0.0000 O   0  0  0  0  0  0  0  0  0  0  0  0
   -4.1102    4.2132    0.0000 C   0  0  0  0  0  0  0  0  0  0  0  0
   -0.9410    0.0954    0.0000 C   0  0  0  0  0  0  0  0  0  0  0  0
    0.2477    1.0103    0.0000 N   0  0  0  0  0  0  0  0  0  0  0  0
    1.6344    0.4383    0.0000 C   0  0  0  0  0  0  0  0  0  0  0  0
    2.8231    1.3531    0.0000 C   0  0  0  0  0  0  0  0  0  0  0  0
    4.2097    0.7811    0.0000 C   0  0  0  0  0  0  0  0  0  0  0  0
    5.3984    1.6960    0.0000 C   0  0  0  0  0  0  0  0  0  0  0  0
    6.7851    1.1240    0.0000 C   0  0  0  0  0  0  0  0  0  0  0  0
    6.9830   -0.3629    0.0000 C   0  0  0  0  0  0  0  0  0  0  0  0
    5.7943   -1.2778    0.0000 C   0  0  0  0  0  0  0  0  0  0  0  0
    4.4077   -0.7058    0.0000 C   0  0  0  0  0  0  0  0  0  0  0  0
    0.0498    2.4972    0.0000 C   0  0  0  0  0  0  0  0  0  0  0  0
   -0.7430   -1.3915    0.0000 C   0  0  0  0  0  0  0  0  0  0  0  0
  1  2  1  0
  2  3  2  0
  2  4  1  0
  4  5  1  0
  5  6  1  0
  6  7  1  0
  6  8  1  0
  8  9  1  0
  9 10  1  0
 10 11  2  0
 10 12  1  0
  8 13  1  0
 13 14  1  0
 14 15  1  0
 15 16  1  0
 16 17  1  0
 17 18  2  0
 18 19  1  0
 19 20  2  0
 20 21  1  0
 21 22  2  0
 14 23  1  0
 13 24  1  0
  4 24  2  0
 22 17  1  0
M  END
>  <IC50>  (453) 
0.1

>  <cmpdNO>  (453) 
1208

$$$$

     RDKit          2D

 22 23  0  0  0  0  0  0  0  0999 V2000
   -0.8467   -4.8891    0.0000 O   0  0  0  0  0  0  0  0  0  0  0  0
    0.0820   -3.7111    0.0000 C   0  0  0  0  0  0  0  0  0  0  0  0
    1.5665   -3.9263    0.0000 O   0  0  0  0  0  0  0  0  0  0  0  0
   -0.4739   -2.3179    0.0000 C   0  0  0  0  0  0  0  0  0  0  0  0
   -1.9583   -2.1026    0.0000 C   0  0  0  0  0  0  0  0  0  0  0  0
   -2.5142   -0.7094    0.0000 C   0  0  0  0  0  0  0  0  0  0  0  0
   -3.9987   -0.4942    0.0000 N   0  0  0  0  0  0  0  0  0  0  0  0
   -1.5855    0.4685    0.0000 C   0  0  0  0  0  0  0  0  0  0  0  0
   -2.1414    1.8618    0.0000 N   0  0  0  0  0  0  0  0  0  0  0  0
   -3.6259    2.0770    0.0000 C   0  0  0  0  0  0  0  0  0  0  0  0
   -4.5545    0.8990    0.0000 O   0  0  0  0  0  0  0  0  0  0  0  0
   -4.1817    3.4702    0.0000 C   0  0  0  0  0  0  0  0  0  0  0  0
   -0.1011    0.2533    0.0000 C   0  0  0  0  0  0  0  0  0  0  0  0
    0.8276    1.4313    0.0000 N   0  0  0  0  0  0  0  0  0  0  0  0
    0.2717    2.8245    0.0000 C   0  0  0  0  0  0  0  0  0  0  0  0
    2.3121    1.2161    0.0000 C   0  0  0  0  0  0  0  0  0  0  0  0
    3.2407    2.3940    0.0000 C   0  0  0  0  0  0  0  0  0  0  0  0
    4.7252    2.1788    0.0000 C   0  0  0  0  0  0  0  0  0  0  0  0
    5.2810    0.7856    0.0000 C   0  0  0  0  0  0  0  0  0  0  0  0
    4.3524   -0.3924    0.0000 C   0  0  0  0  0  0  0  0  0  0  0  0
    2.8679   -0.1772    0.0000 C   0  0  0  0  0  0  0  0  0  0  0  0
    0.4548   -1.1399    0.0000 C   0  0  0  0  0  0  0  0  0  0  0  0
  1  2  1  0
  2  3  2  0
  2  4  1  0
  4  5  1  0
  5  6  1  0
  6  7  1  0
  6  8  1  0
  8  9  1  0
  9 10  1  0
 10 11  2  0
 10 12  1  0
  8 13  1  0
 13 14  1  0
 14 15  1  0
 14 16  1  0
 16 17  1  0
 17 18  1  0
 18 19  1  0
 19 20  1  0
 20 21  1  0
 13 22  1  0
  4 22  2  0
 21 16  1  0
M  END
>  <IC50>  (454) 
0.2

>  <cmpdNO>  (454) 
1209

$$$$

     RDKit          2D

 20 20  0  0  0  0  0  0  0  0999 V2000
   -3.9386   -3.2181    0.0000 O   0  0  0  0  0  0  0  0  0  0  0  0
   -2.4426   -3.1089    0.0000 C   0  0  0  0  0  0  0  0  0  0  0  0
   -1.6000   -4.3499    0.0000 O   0  0  0  0  0  0  0  0  0  0  0  0
   -1.7892   -1.7587    0.0000 C   0  0  0  0  0  0  0  0  0  0  0  0
   -2.6318   -0.5177    0.0000 C   0  0  0  0  0  0  0  0  0  0  0  0
   -1.9784    0.8324    0.0000 C   0  0  0  0  0  0  0  0  0  0  0  0
   -2.8209    2.0734    0.0000 N   0  0  0  0  0  0  0  0  0  0  0  0
   -0.4823    0.9417    0.0000 C   0  0  0  0  0  0  0  0  0  0  0  0
    0.1711    2.2919    0.0000 N   0  0  0  0  0  0  0  0  0  0  0  0
   -0.6715    3.5328    0.0000 C   0  0  0  0  0  0  0  0  0  0  0  0
   -2.1675    3.4236    0.0000 O   0  0  0  0  0  0  0  0  0  0  0  0
   -0.0181    4.8830    0.0000 C   0  0  0  0  0  0  0  0  0  0  0  0
    0.3602   -0.2993    0.0000 C   0  0  0  0  0  0  0  0  0  0  0  0
    1.8563   -0.1901    0.0000 N   0  0  0  0  0  0  0  0  0  0  0  0
    2.6989   -1.4311    0.0000 C   0  0  0  0  0  0  0  0  0  0  0  0
    4.1949   -1.3219    0.0000 C   0  0  0  0  0  0  0  0  0  0  0  0
    5.0375   -2.5629    0.0000 C   0  0  0  0  0  0  0  0  0  0  0  0
    2.5097    1.1601    0.0000 C   0  0  0  0  0  0  0  0  0  0  0  0
    4.0057    1.2693    0.0000 C   0  0  0  0  0  0  0  0  0  0  0  0
   -0.2932   -1.6495    0.0000 C   0  0  0  0  0  0  0  0  0  0  0  0
  1  2  1  0
  2  3  2  0
  2  4  1  0
  4  5  1  0
  5  6  1  0
  6  7  1  0
  6  8  1  0
  8  9  1  0
  9 10  1  0
 10 11  2  0
 10 12  1  0
  8 13  1  0
 13 14  1  0
 14 15  1  0
 15 16  1  0
 16 17  1  0
 14 18  1  0
 18 19  1  0
 13 20  1  0
  4 20  2  0
M  END
>  <IC50>  (455) 
0.09

>  <cmpdNO>  (455) 
1210

$$$$

     RDKit          2D

 21 21  0  0  0  0  0  0  0  0999 V2000
   -3.1511   -4.2130    0.0000 O   0  0  0  0  0  0  0  0  0  0  0  0
   -1.7532   -3.6691    0.0000 C   0  0  0  0  0  0  0  0  0  0  0  0
   -0.5832   -4.6077    0.0000 O   0  0  0  0  0  0  0  0  0  0  0  0
   -1.5253   -2.1865    0.0000 C   0  0  0  0  0  0  0  0  0  0  0  0
   -2.6953   -1.2478    0.0000 C   0  0  0  0  0  0  0  0  0  0  0  0
   -2.4673    0.2348    0.0000 C   0  0  0  0  0  0  0  0  0  0  0  0
   -3.6373    1.1735    0.0000 N   0  0  0  0  0  0  0  0  0  0  0  0
   -1.0694    0.7787    0.0000 C   0  0  0  0  0  0  0  0  0  0  0  0
   -0.8415    2.2613    0.0000 N   0  0  0  0  0  0  0  0  0  0  0  0
   -2.0115    3.1999    0.0000 C   0  0  0  0  0  0  0  0  0  0  0  0
   -3.4094    2.6561    0.0000 O   0  0  0  0  0  0  0  0  0  0  0  0
   -1.7835    4.6825    0.0000 C   0  0  0  0  0  0  0  0  0  0  0  0
    0.1006   -0.1600    0.0000 C   0  0  0  0  0  0  0  0  0  0  0  0
    1.4985    0.3839    0.0000 N   0  0  0  0  0  0  0  0  0  0  0  0
    2.6685   -0.5548    0.0000 C   0  0  0  0  0  0  0  0  0  0  0  0
    4.0664   -0.0109    0.0000 C   0  0  0  0  0  0  0  0  0  0  0  0
    5.2364   -0.9496    0.0000 C   0  0  0  0  0  0  0  0  0  0  0  0
    6.6343   -0.4057    0.0000 C   0  0  0  0  0  0  0  0  0  0  0  0
    1.7264    1.8665    0.0000 C   0  0  0  0  0  0  0  0  0  0  0  0
    3.1243    2.4104    0.0000 C   0  0  0  0  0  0  0  0  0  0  0  0
   -0.1274   -1.6426    0.0000 C   0  0  0  0  0  0  0  0  0  0  0  0
  1  2  1  0
  2  3  2  0
  2  4  1  0
  4  5  1  0
  5  6  1  0
  6  7  1  0
  6  8  1  0
  8  9  1  0
  9 10  1  0
 10 11  2  0
 10 12  1  0
  8 13  1  0
 13 14  1  0
 14 15  1  0
 15 16  1  0
 16 17  1  0
 17 18  1  0
 14 19  1  0
 19 20  1  0
 13 21  1  0
  4 21  2  0
M  END
>  <IC50>  (456) 
0.085

>  <cmpdNO>  (456) 
1211

$$$$

     RDKit          2D

 21 21  0  0  0  0  0  0  0  0999 V2000
   -5.1078   -1.5477    0.0000 O   0  0  0  0  0  0  0  0  0  0  0  0
   -3.6792   -2.0050    0.0000 C   0  0  0  0  0  0  0  0  0  0  0  0
   -3.3608   -3.4708    0.0000 O   0  0  0  0  0  0  0  0  0  0  0  0
   -2.5689   -0.9964    0.0000 C   0  0  0  0  0  0  0  0  0  0  0  0
   -2.8872    0.4694    0.0000 C   0  0  0  0  0  0  0  0  0  0  0  0
   -1.7769    1.4780    0.0000 C   0  0  0  0  0  0  0  0  0  0  0  0
   -2.0952    2.9439    0.0000 N   0  0  0  0  0  0  0  0  0  0  0  0
   -0.3483    1.0208    0.0000 C   0  0  0  0  0  0  0  0  0  0  0  0
    0.7620    2.0294    0.0000 N   0  0  0  0  0  0  0  0  0  0  0  0
    0.4437    3.4952    0.0000 C   0  0  0  0  0  0  0  0  0  0  0  0
   -0.9849    3.9524    0.0000 O   0  0  0  0  0  0  0  0  0  0  0  0
    1.5540    4.5038    0.0000 C   0  0  0  0  0  0  0  0  0  0  0  0
   -0.0300   -0.4451    0.0000 C   0  0  0  0  0  0  0  0  0  0  0  0
    1.3987   -0.9023    0.0000 N   0  0  0  0  0  0  0  0  0  0  0  0
    1.7170   -2.3682    0.0000 C   0  0  0  0  0  0  0  0  0  0  0  0
    3.1456   -2.8254    0.0000 C   0  0  0  0  0  0  0  0  0  0  0  0
    3.4639   -4.2912    0.0000 C   0  0  0  0  0  0  0  0  0  0  0  0
    2.5089    0.1063    0.0000 C   0  0  0  0  0  0  0  0  0  0  0  0
    3.9376   -0.3510    0.0000 C   0  0  0  0  0  0  0  0  0  0  0  0
    5.0479    0.6576    0.0000 C   0  0  0  0  0  0  0  0  0  0  0  0
   -1.1402   -1.4536    0.0000 C   0  0  0  0  0  0  0  0  0  0  0  0
  1  2  1  0
  2  3  2  0
  2  4  1  0
  4  5  1  0
  5  6  1  0
  6  7  1  0
  6  8  1  0
  8  9  1  0
  9 10  1  0
 10 11  2  0
 10 12  1  0
  8 13  1  0
 13 14  1  0
 14 15  1  0
 15 16  1  0
 16 17  1  0
 14 18  1  0
 18 19  1  0
 19 20  1  0
 13 21  1  0
  4 21  2  0
M  END
>  <IC50>  (457) 
0.012

>  <cmpdNO>  (457) 
1212

$$$$

     RDKit          2D

 18 18  0  0  0  0  0  0  0  0999 V2000
   -4.9230   -0.7504    0.0000 O   0  0  0  0  0  0  0  0  0  0  0  0
   -3.5303   -1.3078    0.0000 C   0  0  0  0  0  0  0  0  0  0  0  0
   -3.3167   -2.7925    0.0000 O   0  0  0  0  0  0  0  0  0  0  0  0
   -2.3514   -0.3804    0.0000 C   0  0  0  0  0  0  0  0  0  0  0  0
   -2.5650    1.1043    0.0000 C   0  0  0  0  0  0  0  0  0  0  0  0
   -1.3860    2.0317    0.0000 C   0  0  0  0  0  0  0  0  0  0  0  0
   -1.5996    3.5164    0.0000 N   0  0  0  0  0  0  0  0  0  0  0  0
    0.0066    1.4743    0.0000 C   0  0  0  0  0  0  0  0  0  0  0  0
    1.1856    2.4017    0.0000 N   0  0  0  0  0  0  0  0  0  0  0  0
    2.5782    1.8443    0.0000 C   0  0  0  0  0  0  0  0  0  0  0  0
    2.7918    0.3596    0.0000 O   0  0  0  0  0  0  0  0  0  0  0  0
    3.7572    2.7717    0.0000 C   0  0  0  0  0  0  0  0  0  0  0  0
    0.2202   -0.0104    0.0000 C   0  0  0  0  0  0  0  0  0  0  0  0
    1.6128   -0.5678    0.0000 N   0  0  0  0  0  0  0  0  0  0  0  0
    1.8265   -2.0525    0.0000 C   0  0  0  0  0  0  0  0  0  0  0  0
    3.2191   -2.6098    0.0000 C   0  0  0  0  0  0  0  0  0  0  0  0
    3.4327   -4.0945    0.0000 C   0  0  0  0  0  0  0  0  0  0  0  0
   -0.9588   -0.9378    0.0000 C   0  0  0  0  0  0  0  0  0  0  0  0
  1  2  1  0
  2  3  2  0
  2  4  1  0
  4  5  1  0
  5  6  1  0
  6  7  1  0
  6  8  1  0
  8  9  1  0
  9 10  1  0
 10 11  2  0
 10 12  1  0
  8 13  1  0
 13 14  1  0
 14 15  1  0
 15 16  1  0
 16 17  1  0
 13 18  1  0
  4 18  2  0
M  END
>  <IC50>  (458) 
0.2

>  <cmpdNO>  (458) 
1213

$$$$

     RDKit          2D

 20 20  0  0  0  0  0  0  0  0999 V2000
   -4.7965   -1.4561    0.0000 O   0  0  0  0  0  0  0  0  0  0  0  0
   -3.3160   -1.6973    0.0000 C   0  0  0  0  0  0  0  0  0  0  0  0
   -2.7847   -3.1000    0.0000 O   0  0  0  0  0  0  0  0  0  0  0  0
   -2.3669   -0.5357    0.0000 C   0  0  0  0  0  0  0  0  0  0  0  0
   -2.8983    0.8670    0.0000 C   0  0  0  0  0  0  0  0  0  0  0  0
   -1.9492    2.0285    0.0000 C   0  0  0  0  0  0  0  0  0  0  0  0
   -2.4806    3.4313    0.0000 N   0  0  0  0  0  0  0  0  0  0  0  0
   -0.4687    1.7874    0.0000 C   0  0  0  0  0  0  0  0  0  0  0  0
    0.4804    2.9489    0.0000 N   0  0  0  0  0  0  0  0  0  0  0  0
    1.9609    2.7077    0.0000 C   0  0  0  0  0  0  0  0  0  0  0  0
    2.4923    1.3050    0.0000 O   0  0  0  0  0  0  0  0  0  0  0  0
    2.9100    3.8693    0.0000 C   0  0  0  0  0  0  0  0  0  0  0  0
    0.0627    0.3846    0.0000 C   0  0  0  0  0  0  0  0  0  0  0  0
    1.5431    0.1435    0.0000 N   0  0  0  0  0  0  0  0  0  0  0  0
    2.0745   -1.2593    0.0000 C   0  0  0  0  0  0  0  0  0  0  0  0
    3.5550   -1.5004    0.0000 C   0  0  0  0  0  0  0  0  0  0  0  0
    4.0864   -2.9032    0.0000 C   0  0  0  0  0  0  0  0  0  0  0  0
    1.1254   -2.4208    0.0000 C   0  0  0  0  0  0  0  0  0  0  0  0
    1.6568   -3.8235    0.0000 C   0  0  0  0  0  0  0  0  0  0  0  0
   -0.8864   -0.7769    0.0000 C   0  0  0  0  0  0  0  0  0  0  0  0
  1  2  1  0
  2  3  2  0
  2  4  1  0
  4  5  1  0
  5  6  1  0
  6  7  1  0
  6  8  1  0
  8  9  1  0
  9 10  1  0
 10 11  2  0
 10 12  1  0
  8 13  1  0
 13 14  1  0
 14 15  1  0
 15 16  1  0
 16 17  1  0
 15 18  1  0
 18 19  1  0
 13 20  1  0
  4 20  2  0
M  END
>  <IC50>  (459) 
0.011

>  <cmpdNO>  (459) 
1214

$$$$

     RDKit          2D

 21 21  0  0  0  0  0  0  0  0999 V2000
   -0.4834   -0.7326    0.0000 O   0  0  0  0  0  0  0  0  0  0  0  0
   -1.5843    0.2863    0.0000 C   0  0  0  0  0  0  0  0  0  0  0  0
   -3.0171   -0.1576    0.0000 C   0  0  0  0  0  0  0  0  0  0  0  0
   -4.1179    0.8613    0.0000 C   0  0  0  0  0  0  0  0  0  0  0  0
   -5.5507    0.4174    0.0000 C   0  0  0  0  0  0  0  0  0  0  0  0
   -6.6515    1.4364    0.0000 C   0  0  0  0  0  0  0  0  0  0  0  0
   -8.0844    0.9925    0.0000 C   0  0  0  0  0  0  0  0  0  0  0  0
    0.9494   -0.2887    0.0000 C   0  0  0  0  0  0  0  0  0  0  0  0
    1.2814    1.1741    0.0000 C   0  0  0  0  0  0  0  0  0  0  0  0
    2.7142    1.6180    0.0000 C   0  0  0  0  0  0  0  0  0  0  0  0
    3.8150    0.5991    0.0000 C   0  0  0  0  0  0  0  0  0  0  0  0
    3.4830   -0.8637    0.0000 C   0  0  0  0  0  0  0  0  0  0  0  0
    4.5839   -1.8826    0.0000 N   0  0  0  0  0  0  0  0  0  0  0  0
    2.0502   -1.3076    0.0000 C   0  0  0  0  0  0  0  0  0  0  0  0
    1.7182   -2.7704    0.0000 N   0  0  0  0  0  0  0  0  0  0  0  0
    0.2854   -3.2143    0.0000 C   0  0  0  0  0  0  0  0  0  0  0  0
   -0.8154   -2.1954    0.0000 O   0  0  0  0  0  0  0  0  0  0  0  0
   -0.0466   -4.6771    0.0000 C   0  0  0  0  0  0  0  0  0  0  0  0
    3.0462    3.0808    0.0000 C   0  0  0  0  0  0  0  0  0  0  0  0
    4.4790    3.5247    0.0000 O   0  0  0  0  0  0  0  0  0  0  0  0
    1.9454    4.0997    0.0000 O   0  0  0  0  0  0  0  0  0  0  0  0
  1  2  1  0
  2  3  1  0
  3  4  1  0
  4  5  1  0
  5  6  1  0
  6  7  1  0
  1  8  1  0
  8  9  1  0
  9 10  2  0
 10 11  1  0
 11 12  1  0
 12 13  1  0
 12 14  1  0
 14 15  1  0
 15 16  1  0
 16 17  2  0
 16 18  1  0
 10 19  1  0
 19 20  1  0
 19 21  2  0
 14  8  1  0
M  END
>  <IC50>  (460) 
0.15

>  <cmpdNO>  (460) 
1217

$$$$

     RDKit          2D

 22 22  0  0  0  0  0  0  0  0999 V2000
   -0.0071   -0.8266    0.0000 O   0  0  0  0  0  0  0  0  0  0  0  0
   -1.1777    0.1114    0.0000 C   0  0  0  0  0  0  0  0  0  0  0  0
   -2.5753   -0.4333    0.0000 C   0  0  0  0  0  0  0  0  0  0  0  0
   -3.7458    0.5048    0.0000 C   0  0  0  0  0  0  0  0  0  0  0  0
   -5.1434   -0.0399    0.0000 C   0  0  0  0  0  0  0  0  0  0  0  0
   -6.3139    0.8981    0.0000 C   0  0  0  0  0  0  0  0  0  0  0  0
   -7.7115    0.3534    0.0000 C   0  0  0  0  0  0  0  0  0  0  0  0
   -8.8820    1.2915    0.0000 C   0  0  0  0  0  0  0  0  0  0  0  0
    1.3905   -0.2820    0.0000 C   0  0  0  0  0  0  0  0  0  0  0  0
    1.6176    1.2008    0.0000 C   0  0  0  0  0  0  0  0  0  0  0  0
    3.0152    1.7454    0.0000 C   0  0  0  0  0  0  0  0  0  0  0  0
    4.1857    0.8074    0.0000 C   0  0  0  0  0  0  0  0  0  0  0  0
    3.9586   -0.6753    0.0000 C   0  0  0  0  0  0  0  0  0  0  0  0
    5.1291   -1.6133    0.0000 N   0  0  0  0  0  0  0  0  0  0  0  0
    2.5610   -1.2200    0.0000 C   0  0  0  0  0  0  0  0  0  0  0  0
    2.3339   -2.7027    0.0000 N   0  0  0  0  0  0  0  0  0  0  0  0
    0.9363   -3.2474    0.0000 C   0  0  0  0  0  0  0  0  0  0  0  0
   -0.2342   -2.3093    0.0000 O   0  0  0  0  0  0  0  0  0  0  0  0
    0.7092   -4.7301    0.0000 C   0  0  0  0  0  0  0  0  0  0  0  0
    3.2423    3.2281    0.0000 C   0  0  0  0  0  0  0  0  0  0  0  0
    4.6399    3.7728    0.0000 O   0  0  0  0  0  0  0  0  0  0  0  0
    2.0718    4.1662    0.0000 O   0  0  0  0  0  0  0  0  0  0  0  0
  1  2  1  0
  2  3  1  0
  3  4  1  0
  4  5  1  0
  5  6  1  0
  6  7  1  0
  7  8  1  0
  1  9  1  0
  9 10  1  0
 10 11  2  0
 11 12  1  0
 12 13  1  0
 13 14  1  0
 13 15  1  0
 15 16  1  0
 16 17  1  0
 17 18  2  0
 17 19  1  0
 11 20  1  0
 20 21  1  0
 20 22  2  0
 15  9  1  0
M  END
>  <IC50>  (461) 
0.27

>  <cmpdNO>  (461) 
1218

$$$$

     RDKit          2D

 23 23  0  0  0  0  0  0  0  0999 V2000
    0.4578   -0.8497    0.0000 O   0  0  0  0  0  0  0  0  0  0  0  0
   -0.7322    0.0636    0.0000 C   0  0  0  0  0  0  0  0  0  0  0  0
   -2.1181   -0.5104    0.0000 C   0  0  0  0  0  0  0  0  0  0  0  0
   -3.3080    0.4028    0.0000 C   0  0  0  0  0  0  0  0  0  0  0  0
   -4.6939   -0.1711    0.0000 C   0  0  0  0  0  0  0  0  0  0  0  0
   -5.8839    0.7421    0.0000 C   0  0  0  0  0  0  0  0  0  0  0  0
   -7.2697    0.1682    0.0000 C   0  0  0  0  0  0  0  0  0  0  0  0
   -8.4597    1.0814    0.0000 C   0  0  0  0  0  0  0  0  0  0  0  0
   -9.8455    0.5075    0.0000 C   0  0  0  0  0  0  0  0  0  0  0  0
    1.8436   -0.2757    0.0000 C   0  0  0  0  0  0  0  0  0  0  0  0
    2.0395    1.2114    0.0000 C   0  0  0  0  0  0  0  0  0  0  0  0
    3.4254    1.7854    0.0000 C   0  0  0  0  0  0  0  0  0  0  0  0
    4.6153    0.8721    0.0000 C   0  0  0  0  0  0  0  0  0  0  0  0
    4.4194   -0.6150    0.0000 C   0  0  0  0  0  0  0  0  0  0  0  0
    5.6094   -1.5282    0.0000 N   0  0  0  0  0  0  0  0  0  0  0  0
    3.0336   -1.1890    0.0000 C   0  0  0  0  0  0  0  0  0  0  0  0
    2.8377   -2.6761    0.0000 N   0  0  0  0  0  0  0  0  0  0  0  0
    1.4518   -3.2500    0.0000 C   0  0  0  0  0  0  0  0  0  0  0  0
    0.2619   -2.3368    0.0000 O   0  0  0  0  0  0  0  0  0  0  0  0
    1.2560   -4.7372    0.0000 C   0  0  0  0  0  0  0  0  0  0  0  0
    3.6213    3.2725    0.0000 C   0  0  0  0  0  0  0  0  0  0  0  0
    5.0071    3.8464    0.0000 O   0  0  0  0  0  0  0  0  0  0  0  0
    2.4313    4.1857    0.0000 O   0  0  0  0  0  0  0  0  0  0  0  0
  1  2  1  0
  2  3  1  0
  3  4  1  0
  4  5  1  0
  5  6  1  0
  6  7  1  0
  7  8  1  0
  8  9  1  0
  1 10  1  0
 10 11  1  0
 11 12  2  0
 12 13  1  0
 13 14  1  0
 14 15  1  0
 14 16  1  0
 16 17  1  0
 17 18  1  0
 18 19  2  0
 18 20  1  0
 12 21  1  0
 21 22  1  0
 21 23  2  0
 16 10  1  0
M  END
>  <IC50>  (462) 
0.18

>  <cmpdNO>  (462) 
1219

$$$$

     RDKit          2D

 24 24  0  0  0  0  0  0  0  0999 V2000
    0.9465   -0.8787    0.0000 O   0  0  0  0  0  0  0  0  0  0  0  0
   -0.2724   -0.0044    0.0000 C   0  0  0  0  0  0  0  0  0  0  0  0
   -1.6390   -0.6229    0.0000 C   0  0  0  0  0  0  0  0  0  0  0  0
   -2.8578    0.2514    0.0000 C   0  0  0  0  0  0  0  0  0  0  0  0
   -4.2244   -0.3670    0.0000 C   0  0  0  0  0  0  0  0  0  0  0  0
   -5.4433    0.5073    0.0000 C   0  0  0  0  0  0  0  0  0  0  0  0
   -6.8099   -0.1111    0.0000 C   0  0  0  0  0  0  0  0  0  0  0  0
   -8.0287    0.7632    0.0000 C   0  0  0  0  0  0  0  0  0  0  0  0
   -9.3953    0.1447    0.0000 C   0  0  0  0  0  0  0  0  0  0  0  0
  -10.6142    1.0190    0.0000 C   0  0  0  0  0  0  0  0  0  0  0  0
    2.3131   -0.2603    0.0000 C   0  0  0  0  0  0  0  0  0  0  0  0
    2.4608    1.2324    0.0000 C   0  0  0  0  0  0  0  0  0  0  0  0
    3.8274    1.8508    0.0000 C   0  0  0  0  0  0  0  0  0  0  0  0
    5.0462    0.9765    0.0000 C   0  0  0  0  0  0  0  0  0  0  0  0
    4.8985   -0.5162    0.0000 C   0  0  0  0  0  0  0  0  0  0  0  0
    6.1174   -1.3905    0.0000 N   0  0  0  0  0  0  0  0  0  0  0  0
    3.5319   -1.1346    0.0000 C   0  0  0  0  0  0  0  0  0  0  0  0
    3.3842   -2.6273    0.0000 N   0  0  0  0  0  0  0  0  0  0  0  0
    2.0176   -3.2457    0.0000 C   0  0  0  0  0  0  0  0  0  0  0  0
    0.7987   -2.3714    0.0000 O   0  0  0  0  0  0  0  0  0  0  0  0
    1.8699   -4.7384    0.0000 C   0  0  0  0  0  0  0  0  0  0  0  0
    3.9751    3.3435    0.0000 C   0  0  0  0  0  0  0  0  0  0  0  0
    5.3417    3.9619    0.0000 O   0  0  0  0  0  0  0  0  0  0  0  0
    2.7562    4.2178    0.0000 O   0  0  0  0  0  0  0  0  0  0  0  0
  1  2  1  0
  2  3  1  0
  3  4  1  0
  4  5  1  0
  5  6  1  0
  6  7  1  0
  7  8  1  0
  8  9  1  0
  9 10  1  0
  1 11  1  0
 11 12  1  0
 12 13  2  0
 13 14  1  0
 14 15  1  0
 15 16  1  0
 15 17  1  0
 17 18  1  0
 18 19  1  0
 19 20  2  0
 19 21  1  0
 13 22  1  0
 22 23  1  0
 22 24  2  0
 17 11  1  0
M  END
>  <IC50>  (463) 
0.21

>  <cmpdNO>  (463) 
1220

$$$$

     RDKit          2D

 25 25  0  0  0  0  0  0  0  0999 V2000
    1.4325   -0.8838    0.0000 O   0  0  0  0  0  0  0  0  0  0  0  0
    0.2070   -0.0189    0.0000 C   0  0  0  0  0  0  0  0  0  0  0  0
   -1.1548   -0.6477    0.0000 C   0  0  0  0  0  0  0  0  0  0  0  0
   -2.3803    0.2172    0.0000 C   0  0  0  0  0  0  0  0  0  0  0  0
   -3.7422   -0.4116    0.0000 C   0  0  0  0  0  0  0  0  0  0  0  0
   -4.9677    0.4533    0.0000 C   0  0  0  0  0  0  0  0  0  0  0  0
   -6.3295   -0.1755    0.0000 C   0  0  0  0  0  0  0  0  0  0  0  0
   -7.5550    0.6894    0.0000 C   0  0  0  0  0  0  0  0  0  0  0  0
   -8.9168    0.0606    0.0000 C   0  0  0  0  0  0  0  0  0  0  0  0
  -10.1423    0.9255    0.0000 C   0  0  0  0  0  0  0  0  0  0  0  0
  -11.5041    0.2967    0.0000 C   0  0  0  0  0  0  0  0  0  0  0  0
    2.7943   -0.2550    0.0000 C   0  0  0  0  0  0  0  0  0  0  0  0
    2.9306    1.2388    0.0000 C   0  0  0  0  0  0  0  0  0  0  0  0
    4.2924    1.8677    0.0000 C   0  0  0  0  0  0  0  0  0  0  0  0
    5.5180    1.0027    0.0000 C   0  0  0  0  0  0  0  0  0  0  0  0
    5.3816   -0.4911    0.0000 C   0  0  0  0  0  0  0  0  0  0  0  0
    6.6071   -1.3560    0.0000 N   0  0  0  0  0  0  0  0  0  0  0  0
    4.0198   -1.1199    0.0000 C   0  0  0  0  0  0  0  0  0  0  0  0
    3.8835   -2.6137    0.0000 N   0  0  0  0  0  0  0  0  0  0  0  0
    2.5217   -3.2426    0.0000 C   0  0  0  0  0  0  0  0  0  0  0  0
    1.2962   -2.3776    0.0000 O   0  0  0  0  0  0  0  0  0  0  0  0
    2.3854   -4.7364    0.0000 C   0  0  0  0  0  0  0  0  0  0  0  0
    4.4288    3.3614    0.0000 C   0  0  0  0  0  0  0  0  0  0  0  0
    5.7906    3.9903    0.0000 O   0  0  0  0  0  0  0  0  0  0  0  0
    3.2032    4.2264    0.0000 O   0  0  0  0  0  0  0  0  0  0  0  0
  1  2  1  0
  2  3  1  0
  3  4  1  0
  4  5  1  0
  5  6  1  0
  6  7  1  0
  7  8  1  0
  8  9  1  0
  9 10  1  0
 10 11  1  0
  1 12  1  0
 12 13  1  0
 13 14  2  0
 14 15  1  0
 15 16  1  0
 16 17  1  0
 16 18  1  0
 18 19  1  0
 19 20  1  0
 20 21  2  0
 20 22  1  0
 14 23  1  0
 23 24  1  0
 23 25  2  0
 18 12  1  0
M  END
>  <IC50>  (464) 
0.239

>  <cmpdNO>  (464) 
1221

$$$$

     RDKit          2D

 19 19  0  0  0  0  0  0  0  0999 V2000
    1.5363   -0.8552    0.0000 O   0  0  0  0  0  0  0  0  0  0  0  0
    1.3262   -2.3404    0.0000 C   0  0  0  0  0  0  0  0  0  0  0  0
   -0.0651   -2.9011    0.0000 C   0  0  0  0  0  0  0  0  0  0  0  0
   -0.2752   -4.3863    0.0000 C   0  0  0  0  0  0  0  0  0  0  0  0
    2.5074   -3.2649    0.0000 C   0  0  0  0  0  0  0  0  0  0  0  0
    0.3551    0.0694    0.0000 C   0  0  0  0  0  0  0  0  0  0  0  0
   -1.0362   -0.4913    0.0000 C   0  0  0  0  0  0  0  0  0  0  0  0
   -2.2174    0.4333    0.0000 C   0  0  0  0  0  0  0  0  0  0  0  0
   -2.0073    1.9185    0.0000 C   0  0  0  0  0  0  0  0  0  0  0  0
   -0.6160    2.4791    0.0000 C   0  0  0  0  0  0  0  0  0  0  0  0
   -0.4060    3.9644    0.0000 N   0  0  0  0  0  0  0  0  0  0  0  0
    0.5652    1.5546    0.0000 C   0  0  0  0  0  0  0  0  0  0  0  0
    1.9564    2.1153    0.0000 N   0  0  0  0  0  0  0  0  0  0  0  0
    3.1376    1.1907    0.0000 C   0  0  0  0  0  0  0  0  0  0  0  0
    2.9275   -0.2945    0.0000 O   0  0  0  0  0  0  0  0  0  0  0  0
    4.5289    1.7514    0.0000 C   0  0  0  0  0  0  0  0  0  0  0  0
   -3.6087   -0.1274    0.0000 C   0  0  0  0  0  0  0  0  0  0  0  0
   -4.7899    0.7971    0.0000 O   0  0  0  0  0  0  0  0  0  0  0  0
   -3.8188   -1.6126    0.0000 O   0  0  0  0  0  0  0  0  0  0  0  0
  1  2  1  0
  2  3  1  0
  3  4  1  0
  2  5  1  0
  1  6  1  0
  6  7  1  0
  7  8  2  0
  8  9  1  0
  9 10  1  0
 10 11  1  0
 10 12  1  0
 12 13  1  0
 13 14  1  0
 14 15  2  0
 14 16  1  0
  8 17  1  0
 17 18  1  0
 17 19  2  0
 12  6  1  0
M  END
>  <IC50>  (465) 
0.01

>  <cmpdNO>  (465) 
1222

$$$$

     RDKit          2D

 21 21  0  0  0  0  0  0  0  0999 V2000
   -0.9279   -1.2500    0.0000 O   0  0  0  0  0  0  0  0  0  0  0  0
   -2.2269   -0.5000    0.0000 C   0  0  0  0  0  0  0  0  0  0  0  0
   -2.2269    1.0000    0.0000 C   0  0  0  0  0  0  0  0  0  0  0  0
   -3.5260    1.7500    0.0000 C   0  0  0  0  0  0  0  0  0  0  0  0
   -3.5260    3.2500    0.0000 C   0  0  0  0  0  0  0  0  0  0  0  0
   -3.5260   -1.2500    0.0000 C   0  0  0  0  0  0  0  0  0  0  0  0
   -4.8250   -0.5000    0.0000 C   0  0  0  0  0  0  0  0  0  0  0  0
    0.3712   -0.5000    0.0000 C   0  0  0  0  0  0  0  0  0  0  0  0
    0.3712    1.0000    0.0000 C   0  0  0  0  0  0  0  0  0  0  0  0
    1.6702    1.7500    0.0000 C   0  0  0  0  0  0  0  0  0  0  0  0
    2.9692    1.0000    0.0000 C   0  0  0  0  0  0  0  0  0  0  0  0
    2.9692   -0.5000    0.0000 C   0  0  0  0  0  0  0  0  0  0  0  0
    4.2683   -1.2500    0.0000 N   0  0  0  0  0  0  0  0  0  0  0  0
    1.6702   -1.2500    0.0000 C   0  0  0  0  0  0  0  0  0  0  0  0
    1.6702   -2.7500    0.0000 N   0  0  0  0  0  0  0  0  0  0  0  0
    0.3712   -3.5000    0.0000 C   0  0  0  0  0  0  0  0  0  0  0  0
   -0.9279   -2.7500    0.0000 O   0  0  0  0  0  0  0  0  0  0  0  0
    0.3712   -5.0000    0.0000 C   0  0  0  0  0  0  0  0  0  0  0  0
    1.6702    3.2500    0.0000 C   0  0  0  0  0  0  0  0  0  0  0  0
    2.9692    4.0000    0.0000 O   0  0  0  0  0  0  0  0  0  0  0  0
    0.3712    4.0000    0.0000 O   0  0  0  0  0  0  0  0  0  0  0  0
  1  2  1  0
  2  3  1  0
  3  4  1  0
  4  5  2  0
  2  6  1  0
  6  7  1  0
  1  8  1  0
  8  9  1  0
  9 10  2  0
 10 11  1  0
 11 12  1  0
 12 13  1  0
 12 14  1  0
 14 15  1  0
 15 16  1  0
 16 17  2  0
 16 18  1  0
 10 19  1  0
 19 20  1  0
 19 21  2  0
 14  8  1  0
M  END
>  <IC50>  (466) 
0.001

>  <cmpdNO>  (466) 
1223

$$$$

     RDKit          2D

 25 25  0  0  0  0  0  0  0  0999 V2000
    1.5611   -1.5368    0.0000 O   0  0  0  0  0  0  0  0  0  0  0  0
    0.1252   -1.9706    0.0000 C   0  0  0  0  0  0  0  0  0  0  0  0
   -0.9684   -0.9439    0.0000 C   0  0  0  0  0  0  0  0  0  0  0  0
   -2.4043   -1.3777    0.0000 C   0  0  0  0  0  0  0  0  0  0  0  0
   -3.4979   -0.3511    0.0000 C   0  0  0  0  0  0  0  0  0  0  0  0
   -4.9338   -0.7849    0.0000 C   0  0  0  0  0  0  0  0  0  0  0  0
   -6.0275    0.2418    0.0000 C   0  0  0  0  0  0  0  0  0  0  0  0
   -7.4634   -0.1920    0.0000 C   0  0  0  0  0  0  0  0  0  0  0  0
   -8.5570    0.8346    0.0000 C   0  0  0  0  0  0  0  0  0  0  0  0
   -0.2171   -3.4310    0.0000 C   0  0  0  0  0  0  0  0  0  0  0  0
   -1.6530   -3.8648    0.0000 C   0  0  0  0  0  0  0  0  0  0  0  0
    1.9034   -0.0764    0.0000 C   0  0  0  0  0  0  0  0  0  0  0  0
    0.8098    0.9503    0.0000 C   0  0  0  0  0  0  0  0  0  0  0  0
    1.1521    2.4107    0.0000 C   0  0  0  0  0  0  0  0  0  0  0  0
    2.5880    2.8445    0.0000 C   0  0  0  0  0  0  0  0  0  0  0  0
    3.6816    1.8179    0.0000 C   0  0  0  0  0  0  0  0  0  0  0  0
    5.1175    2.2516    0.0000 N   0  0  0  0  0  0  0  0  0  0  0  0
    3.3393    0.3574    0.0000 C   0  0  0  0  0  0  0  0  0  0  0  0
    4.4329   -0.6692    0.0000 N   0  0  0  0  0  0  0  0  0  0  0  0
    4.0907   -2.1296    0.0000 C   0  0  0  0  0  0  0  0  0  0  0  0
    2.6548   -2.5634    0.0000 O   0  0  0  0  0  0  0  0  0  0  0  0
    5.1843   -3.1563    0.0000 C   0  0  0  0  0  0  0  0  0  0  0  0
    0.0584    3.4374    0.0000 C   0  0  0  0  0  0  0  0  0  0  0  0
    0.4007    4.8978    0.0000 O   0  0  0  0  0  0  0  0  0  0  0  0
   -1.3775    3.0036    0.0000 O   0  0  0  0  0  0  0  0  0  0  0  0
  1  2  1  0
  2  3  1  0
  3  4  1  0
  4  5  1  0
  5  6  1  0
  6  7  1  0
  7  8  1  0
  8  9  1  0
  2 10  1  0
 10 11  1  0
  1 12  1  0
 12 13  1  0
 13 14  2  0
 14 15  1  0
 15 16  1  0
 16 17  1  0
 16 18  1  0
 18 19  1  0
 19 20  1  0
 20 21  2  0
 20 22  1  0
 14 23  1  0
 23 24  1  0
 23 25  2  0
 18 12  1  0
M  END
>  <IC50>  (467) 
0.001

>  <cmpdNO>  (467) 
1225

$$$$

     RDKit          2D

 25 26  0  0  0  0  0  0  0  0999 V2000
    0.7531    0.5675    0.0000 O   0  0  0  0  0  0  0  0  0  0  0  0
    1.1587    2.0116    0.0000 C   0  0  0  0  0  0  0  0  0  0  0  0
    2.6122    2.3824    0.0000 C   0  0  0  0  0  0  0  0  0  0  0  0
    3.6600    1.3090    0.0000 C   0  0  0  0  0  0  0  0  0  0  0  0
    5.1135    1.6798    0.0000 C   0  0  0  0  0  0  0  0  0  0  0  0
    6.1613    0.6065    0.0000 C   0  0  0  0  0  0  0  0  0  0  0  0
    5.7557   -0.8376    0.0000 C   0  0  0  0  0  0  0  0  0  0  0  0
    4.3022   -1.2084    0.0000 C   0  0  0  0  0  0  0  0  0  0  0  0
    3.2544   -0.1351    0.0000 C   0  0  0  0  0  0  0  0  0  0  0  0
    0.1109    3.0849    0.0000 C   0  0  0  0  0  0  0  0  0  0  0  0
   -1.3426    2.7142    0.0000 C   0  0  0  0  0  0  0  0  0  0  0  0
   -0.7004    0.1967    0.0000 C   0  0  0  0  0  0  0  0  0  0  0  0
   -1.7482    1.2701    0.0000 C   0  0  0  0  0  0  0  0  0  0  0  0
   -3.2016    0.8993    0.0000 C   0  0  0  0  0  0  0  0  0  0  0  0
   -3.6073   -0.5448    0.0000 C   0  0  0  0  0  0  0  0  0  0  0  0
   -2.5594   -1.6182    0.0000 C   0  0  0  0  0  0  0  0  0  0  0  0
   -2.9651   -3.0623    0.0000 N   0  0  0  0  0  0  0  0  0  0  0  0
   -1.1060   -1.2474    0.0000 C   0  0  0  0  0  0  0  0  0  0  0  0
   -0.0582   -2.3207    0.0000 N   0  0  0  0  0  0  0  0  0  0  0  0
   -0.4638   -3.7649    0.0000 C   0  0  0  0  0  0  0  0  0  0  0  0
   -1.9172   -4.1356    0.0000 O   0  0  0  0  0  0  0  0  0  0  0  0
    0.5840   -4.8382    0.0000 C   0  0  0  0  0  0  0  0  0  0  0  0
   -4.2495    1.9726    0.0000 C   0  0  0  0  0  0  0  0  0  0  0  0
   -3.8438    3.4167    0.0000 O   0  0  0  0  0  0  0  0  0  0  0  0
   -5.7029    1.6018    0.0000 O   0  0  0  0  0  0  0  0  0  0  0  0
  1  2  1  0
  2  3  1  0
  3  4  1  0
  4  5  1  0
  5  6  1  0
  6  7  1  0
  7  8  1  0
  8  9  1  0
  2 10  1  0
 10 11  1  0
  1 12  1  0
 12 13  1  0
 13 14  2  0
 14 15  1  0
 15 16  1  0
 16 17  1  0
 16 18  1  0
 18 19  1  0
 19 20  1  0
 20 21  2  0
 20 22  1  0
 14 23  1  0
 23 24  1  0
 23 25  2  0
  9  4  1  0
 18 12  1  0
M  END
>  <IC50>  (468) 
0.016

>  <cmpdNO>  (468) 
1226

$$$$

     RDKit          2D

 26 27  0  0  0  0  0  0  0  0999 V2000
    0.2027    0.0467    0.0000 O   0  0  0  0  0  0  0  0  0  0  0  0
    0.9737    1.3334    0.0000 C   0  0  0  0  0  0  0  0  0  0  0  0
    2.4735    1.3090    0.0000 C   0  0  0  0  0  0  0  0  0  0  0  0
    3.2023   -0.0021    0.0000 C   0  0  0  0  0  0  0  0  0  0  0  0
    4.7021   -0.0264    0.0000 C   0  0  0  0  0  0  0  0  0  0  0  0
    5.4309   -1.3375    0.0000 C   0  0  0  0  0  0  0  0  0  0  0  0
    6.9307   -1.3618    0.0000 C   0  0  0  0  0  0  0  0  0  0  0  0
    7.7017   -0.0752    0.0000 C   0  0  0  0  0  0  0  0  0  0  0  0
    6.9729    1.2359    0.0000 C   0  0  0  0  0  0  0  0  0  0  0  0
    5.4731    1.2603    0.0000 C   0  0  0  0  0  0  0  0  0  0  0  0
    0.2449    2.6444    0.0000 C   0  0  0  0  0  0  0  0  0  0  0  0
   -1.2549    2.6688    0.0000 C   0  0  0  0  0  0  0  0  0  0  0  0
   -1.2971    0.0710    0.0000 C   0  0  0  0  0  0  0  0  0  0  0  0
   -2.0259    1.3821    0.0000 C   0  0  0  0  0  0  0  0  0  0  0  0
   -3.5257    1.4065    0.0000 C   0  0  0  0  0  0  0  0  0  0  0  0
   -4.2967    0.1198    0.0000 C   0  0  0  0  0  0  0  0  0  0  0  0
   -3.5679   -1.1913    0.0000 C   0  0  0  0  0  0  0  0  0  0  0  0
   -4.3389   -2.4780    0.0000 N   0  0  0  0  0  0  0  0  0  0  0  0
   -2.0681   -1.2156    0.0000 C   0  0  0  0  0  0  0  0  0  0  0  0
   -1.3393   -2.5267    0.0000 N   0  0  0  0  0  0  0  0  0  0  0  0
   -2.1103   -3.8134    0.0000 C   0  0  0  0  0  0  0  0  0  0  0  0
   -3.6101   -3.7890    0.0000 O   0  0  0  0  0  0  0  0  0  0  0  0
   -1.3815   -5.1244    0.0000 C   0  0  0  0  0  0  0  0  0  0  0  0
   -4.2545    2.7175    0.0000 C   0  0  0  0  0  0  0  0  0  0  0  0
   -5.7543    2.7419    0.0000 O   0  0  0  0  0  0  0  0  0  0  0  0
   -3.4835    4.0042    0.0000 O   0  0  0  0  0  0  0  0  0  0  0  0
  1  2  1  0
  2  3  1  0
  3  4  1  0
  4  5  1  0
  5  6  1  0
  6  7  1  0
  7  8  1  0
  8  9  1  0
  9 10  1  0
  2 11  1  0
 11 12  1  0
  1 13  1  0
 13 14  1  0
 14 15  2  0
 15 16  1  0
 16 17  1  0
 17 18  1  0
 17 19  1  0
 19 20  1  0
 20 21  1  0
 21 22  2  0
 21 23  1  0
 15 24  1  0
 24 25  1  0
 24 26  2  0
 10  5  1  0
 19 13  1  0
M  END
>  <IC50>  (469) 
0.001

>  <cmpdNO>  (469) 
1227

$$$$

     RDKit          2D

 22 23  0  0  0  0  0  0  0  0999 V2000
    0.7430    1.0850    0.0000 O   0  0  0  0  0  0  0  0  0  0  0  0
    1.8338    0.0553    0.0000 C   0  0  0  0  0  0  0  0  0  0  0  0
    3.2709    0.4851    0.0000 C   0  0  0  0  0  0  0  0  0  0  0  0
    4.3616   -0.5446    0.0000 C   0  0  0  0  0  0  0  0  0  0  0  0
    5.7987   -0.1149    0.0000 C   0  0  0  0  0  0  0  0  0  0  0  0
    6.1451    1.3446    0.0000 C   0  0  0  0  0  0  0  0  0  0  0  0
    5.0544    2.3743    0.0000 C   0  0  0  0  0  0  0  0  0  0  0  0
    3.6173    1.9445    0.0000 C   0  0  0  0  0  0  0  0  0  0  0  0
   -0.6941    0.6553    0.0000 C   0  0  0  0  0  0  0  0  0  0  0  0
   -1.7848    1.6850    0.0000 C   0  0  0  0  0  0  0  0  0  0  0  0
   -3.2220    1.2552    0.0000 C   0  0  0  0  0  0  0  0  0  0  0  0
   -3.5683   -0.2042    0.0000 C   0  0  0  0  0  0  0  0  0  0  0  0
   -2.4776   -1.2339    0.0000 C   0  0  0  0  0  0  0  0  0  0  0  0
   -2.8240   -2.6934    0.0000 N   0  0  0  0  0  0  0  0  0  0  0  0
   -1.0405   -0.8042    0.0000 C   0  0  0  0  0  0  0  0  0  0  0  0
    0.0502   -1.8339    0.0000 N   0  0  0  0  0  0  0  0  0  0  0  0
   -0.2961   -3.2934    0.0000 C   0  0  0  0  0  0  0  0  0  0  0  0
   -1.7333   -3.7231    0.0000 O   0  0  0  0  0  0  0  0  0  0  0  0
    0.7946   -4.3231    0.0000 C   0  0  0  0  0  0  0  0  0  0  0  0
   -4.3127    2.2849    0.0000 C   0  0  0  0  0  0  0  0  0  0  0  0
   -3.9663    3.7444    0.0000 O   0  0  0  0  0  0  0  0  0  0  0  0
   -5.7498    1.8552    0.0000 O   0  0  0  0  0  0  0  0  0  0  0  0
  1  2  1  0
  2  3  1  0
  3  4  2  0
  4  5  1  0
  5  6  2  0
  6  7  1  0
  7  8  2  0
  1  9  1  0
  9 10  1  0
 10 11  2  0
 11 12  1  0
 12 13  1  0
 13 14  1  0
 13 15  1  0
 15 16  1  0
 16 17  1  0
 17 18  2  0
 17 19  1  0
 11 20  1  0
 20 21  1  0
 20 22  2  0
  8  3  1  0
 15  9  1  0
M  END
>  <IC50>  (470) 
0.619

>  <cmpdNO>  (470) 
1228

$$$$

     RDKit          2D

 26 27  0  0  0  0  0  0  0  0999 V2000
    0.2027    0.0467    0.0000 O   0  0  0  0  0  0  0  0  0  0  0  0
    0.9737    1.3334    0.0000 C   0  0  0  0  0  0  0  0  0  0  0  0
    2.4735    1.3090    0.0000 C   0  0  0  0  0  0  0  0  0  0  0  0
    3.2023   -0.0021    0.0000 C   0  0  0  0  0  0  0  0  0  0  0  0
    4.7021   -0.0264    0.0000 C   0  0  0  0  0  0  0  0  0  0  0  0
    5.4309   -1.3375    0.0000 C   0  0  0  0  0  0  0  0  0  0  0  0
    6.9307   -1.3618    0.0000 C   0  0  0  0  0  0  0  0  0  0  0  0
    7.7017   -0.0752    0.0000 C   0  0  0  0  0  0  0  0  0  0  0  0
    6.9729    1.2359    0.0000 C   0  0  0  0  0  0  0  0  0  0  0  0
    5.4731    1.2603    0.0000 C   0  0  0  0  0  0  0  0  0  0  0  0
    0.2449    2.6444    0.0000 C   0  0  0  0  0  0  0  0  0  0  0  0
   -1.2549    2.6688    0.0000 C   0  0  0  0  0  0  0  0  0  0  0  0
   -1.2971    0.0710    0.0000 C   0  0  0  0  0  0  0  0  0  0  0  0
   -2.0259    1.3821    0.0000 C   0  0  0  0  0  0  0  0  0  0  0  0
   -3.5257    1.4065    0.0000 C   0  0  0  0  0  0  0  0  0  0  0  0
   -4.2967    0.1198    0.0000 C   0  0  0  0  0  0  0  0  0  0  0  0
   -3.5679   -1.1913    0.0000 C   0  0  0  0  0  0  0  0  0  0  0  0
   -4.3389   -2.4780    0.0000 N   0  0  0  0  0  0  0  0  0  0  0  0
   -2.0681   -1.2156    0.0000 C   0  0  0  0  0  0  0  0  0  0  0  0
   -1.3393   -2.5267    0.0000 N   0  0  0  0  0  0  0  0  0  0  0  0
   -2.1103   -3.8134    0.0000 C   0  0  0  0  0  0  0  0  0  0  0  0
   -3.6101   -3.7890    0.0000 O   0  0  0  0  0  0  0  0  0  0  0  0
   -1.3815   -5.1244    0.0000 C   0  0  0  0  0  0  0  0  0  0  0  0
   -4.2545    2.7175    0.0000 C   0  0  0  0  0  0  0  0  0  0  0  0
   -5.7543    2.7419    0.0000 O   0  0  0  0  0  0  0  0  0  0  0  0
   -3.4835    4.0042    0.0000 O   0  0  0  0  0  0  0  0  0  0  0  0
  1  2  1  0
  2  3  1  0
  3  4  1  0
  4  5  1  0
  5  6  2  0
  6  7  1  0
  7  8  2  0
  8  9  1  0
  9 10  2  0
  2 11  1  0
 11 12  1  0
  1 13  1  0
 13 14  1  0
 14 15  2  0
 15 16  1  0
 16 17  1  0
 17 18  1  0
 17 19  1  0
 19 20  1  0
 20 21  1  0
 21 22  2  0
 21 23  1  0
 15 24  1  0
 24 25  1  0
 24 26  2  0
 10  5  1  0
 19 13  1  0
M  END
>  <IC50>  (471) 
0

>  <cmpdNO>  (471) 
1229

$$$$

     RDKit          2D

 30 32  0  0  0  0  0  0  0  0999 V2000
   -2.2374    1.0916    0.0000 O   0  0  0  0  0  0  0  0  0  0  0  0
   -1.2436   -0.0319    0.0000 C   0  0  0  0  0  0  0  0  0  0  0  0
    0.2263    0.2670    0.0000 C   0  0  0  0  0  0  0  0  0  0  0  0
    1.2201   -0.8566    0.0000 C   0  0  0  0  0  0  0  0  0  0  0  0
    2.6901   -0.5577    0.0000 C   0  0  0  0  0  0  0  0  0  0  0  0
    3.6839   -1.6813    0.0000 C   0  0  0  0  0  0  0  0  0  0  0  0
    5.1538   -1.3824    0.0000 C   0  0  0  0  0  0  0  0  0  0  0  0
    5.6299    0.0400    0.0000 C   0  0  0  0  0  0  0  0  0  0  0  0
    4.6361    1.1636    0.0000 C   0  0  0  0  0  0  0  0  0  0  0  0
    3.1662    0.8647    0.0000 C   0  0  0  0  0  0  0  0  0  0  0  0
    7.0998    0.3389    0.0000 C   0  0  0  0  0  0  0  0  0  0  0  0
    8.0936   -0.7847    0.0000 C   0  0  0  0  0  0  0  0  0  0  0  0
    9.5635   -0.4858    0.0000 C   0  0  0  0  0  0  0  0  0  0  0  0
   10.0397    0.9366    0.0000 C   0  0  0  0  0  0  0  0  0  0  0  0
    9.0459    2.0602    0.0000 C   0  0  0  0  0  0  0  0  0  0  0  0
    7.5760    1.7613    0.0000 C   0  0  0  0  0  0  0  0  0  0  0  0
   -3.7073    0.7928    0.0000 C   0  0  0  0  0  0  0  0  0  0  0  0
   -4.7011    1.9163    0.0000 C   0  0  0  0  0  0  0  0  0  0  0  0
   -6.1710    1.6175    0.0000 C   0  0  0  0  0  0  0  0  0  0  0  0
   -6.6471    0.1950    0.0000 C   0  0  0  0  0  0  0  0  0  0  0  0
   -5.6534   -0.9285    0.0000 C   0  0  0  0  0  0  0  0  0  0  0  0
   -6.1295   -2.3509    0.0000 N   0  0  0  0  0  0  0  0  0  0  0  0
   -4.1834   -0.6296    0.0000 C   0  0  0  0  0  0  0  0  0  0  0  0
   -3.1896   -1.7532    0.0000 N   0  0  0  0  0  0  0  0  0  0  0  0
   -3.6658   -3.1756    0.0000 C   0  0  0  0  0  0  0  0  0  0  0  0
   -5.1357   -3.4745    0.0000 O   0  0  0  0  0  0  0  0  0  0  0  0
   -2.6720   -4.2992    0.0000 C   0  0  0  0  0  0  0  0  0  0  0  0
   -7.1648    2.7410    0.0000 C   0  0  0  0  0  0  0  0  0  0  0  0
   -6.6887    4.1635    0.0000 O   0  0  0  0  0  0  0  0  0  0  0  0
   -8.6347    2.4422    0.0000 O   0  0  0  0  0  0  0  0  0  0  0  0
  1  2  1  0
  2  3  1  0
  3  4  1  0
  4  5  1  0
  5  6  2  0
  6  7  1  0
  7  8  2  0
  8  9  1  0
  9 10  2  0
  8 11  1  0
 11 12  2  0
 12 13  1  0
 13 14  2  0
 14 15  1  0
 15 16  2  0
  1 17  1  0
 17 18  1  0
 18 19  2  0
 19 20  1  0
 20 21  1  0
 21 22  1  0
 21 23  1  0
 23 24  1  0
 24 25  1  0
 25 26  2  0
 25 27  1  0
 19 28  1  0
 28 29  1  0
 28 30  2  0
 10  5  1  0
 16 11  1  0
 23 17  1  0
M  END
>  <IC50>  (472) 
0.09

>  <cmpdNO>  (472) 
1231

$$$$

     RDKit          2D

 18 18  0  0  0  0  0  0  0  0999 V2000
    0.2971   -2.7717    0.0000 O   0  0  0  0  0  0  0  0  0  0  0  0
   -0.3554   -1.4211    0.0000 C   0  0  0  0  0  0  0  0  0  0  0  0
   -1.8514   -1.3109    0.0000 C   0  0  0  0  0  0  0  0  0  0  0  0
   -2.5038    0.0398    0.0000 C   0  0  0  0  0  0  0  0  0  0  0  0
   -1.6604    1.2802    0.0000 C   0  0  0  0  0  0  0  0  0  0  0  0
   -0.1645    1.1700    0.0000 C   0  0  0  0  0  0  0  0  0  0  0  0
    0.6790    2.4104    0.0000 N   0  0  0  0  0  0  0  0  0  0  0  0
    2.1749    2.3001    0.0000 C   0  0  0  0  0  0  0  0  0  0  0  0
    3.0184    3.5405    0.0000 N   0  0  0  0  0  0  0  0  0  0  0  0
    2.8274    0.9495    0.0000 N   0  0  0  0  0  0  0  0  0  0  0  0
    0.4880   -0.1807    0.0000 C   0  0  0  0  0  0  0  0  0  0  0  0
    1.9840   -0.2909    0.0000 N   0  0  0  0  0  0  0  0  0  0  0  0
    2.6365   -1.6416    0.0000 C   0  0  0  0  0  0  0  0  0  0  0  0
    1.7930   -2.8820    0.0000 O   0  0  0  0  0  0  0  0  0  0  0  0
    4.1324   -1.7518    0.0000 C   0  0  0  0  0  0  0  0  0  0  0  0
   -3.9998    0.1500    0.0000 C   0  0  0  0  0  0  0  0  0  0  0  0
   -4.6523    1.5007    0.0000 O   0  0  0  0  0  0  0  0  0  0  0  0
   -4.8432   -1.0904    0.0000 O   0  0  0  0  0  0  0  0  0  0  0  0
  1  2  1  0
  2  3  1  0
  3  4  2  0
  4  5  1  0
  5  6  1  0
  6  7  1  0
  7  8  1  0
  8  9  1  0
  8 10  2  0
  6 11  1  0
 11 12  1  0
 12 13  1  0
 13 14  2  0
 13 15  1  0
  4 16  1  0
 16 17  1  0
 16 18  2  0
 11  2  1  0
M  END
>  <IC50>  (473) 
0.1

>  <cmpdNO>  (473) 
1232

$$$$

     RDKit          2D

 21 21  0  0  0  0  0  0  0  0999 V2000
   -1.4751   -1.4115    0.0000 O   0  0  0  0  0  0  0  0  0  0  0  0
   -2.9751   -1.4000    0.0000 C   0  0  0  0  0  0  0  0  0  0  0  0
   -3.7350   -2.6933    0.0000 C   0  0  0  0  0  0  0  0  0  0  0  0
   -5.2350   -2.6818    0.0000 C   0  0  0  0  0  0  0  0  0  0  0  0
   -0.7152   -0.1182    0.0000 C   0  0  0  0  0  0  0  0  0  0  0  0
   -1.4552    1.1865    0.0000 C   0  0  0  0  0  0  0  0  0  0  0  0
   -0.6953    2.4798    0.0000 C   0  0  0  0  0  0  0  0  0  0  0  0
    0.8047    2.4683    0.0000 C   0  0  0  0  0  0  0  0  0  0  0  0
    1.5447    1.1635    0.0000 C   0  0  0  0  0  0  0  0  0  0  0  0
    3.0446    1.1520    0.0000 N   0  0  0  0  0  0  0  0  0  0  0  0
    3.7847   -0.1527    0.0000 C   0  0  0  0  0  0  0  0  0  0  0  0
    5.2846   -0.1642    0.0000 N   0  0  0  0  0  0  0  0  0  0  0  0
    3.0247   -1.4460    0.0000 N   0  0  0  0  0  0  0  0  0  0  0  0
    0.7847   -0.1297    0.0000 C   0  0  0  0  0  0  0  0  0  0  0  0
    1.5248   -1.4345    0.0000 N   0  0  0  0  0  0  0  0  0  0  0  0
    0.7648   -2.7277    0.0000 C   0  0  0  0  0  0  0  0  0  0  0  0
   -0.7351   -2.7162    0.0000 O   0  0  0  0  0  0  0  0  0  0  0  0
    1.5049   -4.0325    0.0000 C   0  0  0  0  0  0  0  0  0  0  0  0
   -1.4353    3.7845    0.0000 C   0  0  0  0  0  0  0  0  0  0  0  0
   -0.6754    5.0778    0.0000 O   0  0  0  0  0  0  0  0  0  0  0  0
   -2.9353    3.7960    0.0000 O   0  0  0  0  0  0  0  0  0  0  0  0
  1  2  1  0
  2  3  1  0
  3  4  1  0
  1  5  1  0
  5  6  1  0
  6  7  2  0
  7  8  1  0
  8  9  1  0
  9 10  1  0
 10 11  1  0
 11 12  1  0
 11 13  2  0
  9 14  1  0
 14 15  1  0
 15 16  1  0
 16 17  2  0
 16 18  1  0
  7 19  1  0
 19 20  1  0
 19 21  2  0
 14  5  1  0
M  END
>  <IC50>  (474) 
0.002

>  <cmpdNO>  (474) 
1233

$$$$

     RDKit          2D

 22 22  0  0  0  0  0  0  0  0999 V2000
   -1.6372   -0.5301    0.0000 O   0  0  0  0  0  0  0  0  0  0  0  0
   -2.9596    0.1779    0.0000 C   0  0  0  0  0  0  0  0  0  0  0  0
   -4.2339   -0.6134    0.0000 C   0  0  0  0  0  0  0  0  0  0  0  0
   -5.5563    0.0945    0.0000 C   0  0  0  0  0  0  0  0  0  0  0  0
   -6.8306   -0.6968    0.0000 C   0  0  0  0  0  0  0  0  0  0  0  0
   -0.3629    0.2612    0.0000 C   0  0  0  0  0  0  0  0  0  0  0  0
   -0.4110    1.7604    0.0000 C   0  0  0  0  0  0  0  0  0  0  0  0
    0.8633    2.5517    0.0000 C   0  0  0  0  0  0  0  0  0  0  0  0
    2.1858    1.8438    0.0000 C   0  0  0  0  0  0  0  0  0  0  0  0
    2.2339    0.3446    0.0000 C   0  0  0  0  0  0  0  0  0  0  0  0
    3.5563   -0.3634    0.0000 N   0  0  0  0  0  0  0  0  0  0  0  0
    3.6044   -1.8626    0.0000 C   0  0  0  0  0  0  0  0  0  0  0  0
    4.9269   -2.5705    0.0000 N   0  0  0  0  0  0  0  0  0  0  0  0
    2.3301   -2.6539    0.0000 N   0  0  0  0  0  0  0  0  0  0  0  0
    0.9596   -0.4467    0.0000 C   0  0  0  0  0  0  0  0  0  0  0  0
    1.0077   -1.9459    0.0000 N   0  0  0  0  0  0  0  0  0  0  0  0
   -0.2666   -2.7372    0.0000 C   0  0  0  0  0  0  0  0  0  0  0  0
   -1.5890   -2.0293    0.0000 O   0  0  0  0  0  0  0  0  0  0  0  0
   -0.2185   -4.2365    0.0000 C   0  0  0  0  0  0  0  0  0  0  0  0
    0.8152    4.0510    0.0000 C   0  0  0  0  0  0  0  0  0  0  0  0
    2.0895    4.8423    0.0000 O   0  0  0  0  0  0  0  0  0  0  0  0
   -0.5072    4.7589    0.0000 O   0  0  0  0  0  0  0  0  0  0  0  0
  1  2  1  0
  2  3  1  0
  3  4  1  0
  4  5  1  0
  1  6  1  0
  6  7  1  0
  7  8  2  0
  8  9  1  0
  9 10  1  0
 10 11  1  0
 11 12  1  0
 12 13  1  0
 12 14  2  0
 10 15  1  0
 15 16  1  0
 16 17  1  0
 17 18  2  0
 17 19  1  0
  8 20  1  0
 20 21  1  0
 20 22  2  0
 15  6  1  0
M  END
>  <IC50>  (475) 
0.003

>  <cmpdNO>  (475) 
1234

$$$$

     RDKit          2D

 22 22  0  0  0  0  0  0  0  0999 V2000
   -0.7353   -1.8694    0.0000 O   0  0  0  0  0  0  0  0  0  0  0  0
   -2.1562   -2.3499    0.0000 C   0  0  0  0  0  0  0  0  0  0  0  0
   -3.2829   -1.3597    0.0000 C   0  0  0  0  0  0  0  0  0  0  0  0
   -4.7038   -1.8403    0.0000 C   0  0  0  0  0  0  0  0  0  0  0  0
   -2.4505   -3.8208    0.0000 C   0  0  0  0  0  0  0  0  0  0  0  0
   -0.4410   -0.3985    0.0000 C   0  0  0  0  0  0  0  0  0  0  0  0
   -1.5677    0.5918    0.0000 C   0  0  0  0  0  0  0  0  0  0  0  0
   -1.2734    2.0626    0.0000 C   0  0  0  0  0  0  0  0  0  0  0  0
    0.1475    2.5432    0.0000 C   0  0  0  0  0  0  0  0  0  0  0  0
    1.2742    1.5529    0.0000 C   0  0  0  0  0  0  0  0  0  0  0  0
    2.6951    2.0335    0.0000 N   0  0  0  0  0  0  0  0  0  0  0  0
    3.8218    1.0433    0.0000 C   0  0  0  0  0  0  0  0  0  0  0  0
    5.2427    1.5239    0.0000 N   0  0  0  0  0  0  0  0  0  0  0  0
    3.5275   -0.4276    0.0000 N   0  0  0  0  0  0  0  0  0  0  0  0
    0.9799    0.0821    0.0000 C   0  0  0  0  0  0  0  0  0  0  0  0
    2.1066   -0.9082    0.0000 N   0  0  0  0  0  0  0  0  0  0  0  0
    1.8123   -2.3790    0.0000 C   0  0  0  0  0  0  0  0  0  0  0  0
    0.3914   -2.8596    0.0000 O   0  0  0  0  0  0  0  0  0  0  0  0
    2.9390   -3.3693    0.0000 C   0  0  0  0  0  0  0  0  0  0  0  0
   -2.4001    3.0529    0.0000 C   0  0  0  0  0  0  0  0  0  0  0  0
   -2.1058    4.5237    0.0000 O   0  0  0  0  0  0  0  0  0  0  0  0
   -3.8210    2.5723    0.0000 O   0  0  0  0  0  0  0  0  0  0  0  0
  1  2  1  0
  2  3  1  0
  3  4  1  0
  2  5  1  0
  1  6  1  0
  6  7  1  0
  7  8  2  0
  8  9  1  0
  9 10  1  0
 10 11  1  0
 11 12  1  0
 12 13  1  0
 12 14  2  0
 10 15  1  0
 15 16  1  0
 16 17  1  0
 17 18  2  0
 17 19  1  0
  8 20  1  0
 20 21  1  0
 20 22  2  0
 15  6  1  0
M  END
>  <IC50>  (476) 
0.001

>  <cmpdNO>  (476) 
1235

$$$$

     RDKit          2D

 23 23  0  0  0  0  0  0  0  0999 V2000
   -1.1072   -1.3878    0.0000 O   0  0  0  0  0  0  0  0  0  0  0  0
   -2.6068   -1.3545    0.0000 C   0  0  0  0  0  0  0  0  0  0  0  0
   -3.3854   -2.6366    0.0000 C   0  0  0  0  0  0  0  0  0  0  0  0
   -4.8851   -2.6033    0.0000 C   0  0  0  0  0  0  0  0  0  0  0  0
   -3.3278   -0.0391    0.0000 C   0  0  0  0  0  0  0  0  0  0  0  0
   -4.8274   -0.0058    0.0000 C   0  0  0  0  0  0  0  0  0  0  0  0
   -0.3285   -0.1057    0.0000 C   0  0  0  0  0  0  0  0  0  0  0  0
   -1.0495    1.2097    0.0000 C   0  0  0  0  0  0  0  0  0  0  0  0
   -0.2709    2.4917    0.0000 C   0  0  0  0  0  0  0  0  0  0  0  0
    1.2288    2.4585    0.0000 C   0  0  0  0  0  0  0  0  0  0  0  0
    1.9498    1.1431    0.0000 C   0  0  0  0  0  0  0  0  0  0  0  0
    3.4494    1.1098    0.0000 N   0  0  0  0  0  0  0  0  0  0  0  0
    4.1704   -0.2055    0.0000 C   0  0  0  0  0  0  0  0  0  0  0  0
    5.6700   -0.2388    0.0000 N   0  0  0  0  0  0  0  0  0  0  0  0
    3.3917   -1.4876    0.0000 N   0  0  0  0  0  0  0  0  0  0  0  0
    1.1711   -0.1390    0.0000 C   0  0  0  0  0  0  0  0  0  0  0  0
    1.8921   -1.4543    0.0000 N   0  0  0  0  0  0  0  0  0  0  0  0
    1.1135   -2.7364    0.0000 C   0  0  0  0  0  0  0  0  0  0  0  0
   -0.3862   -2.7031    0.0000 O   0  0  0  0  0  0  0  0  0  0  0  0
    1.8345   -4.0518    0.0000 C   0  0  0  0  0  0  0  0  0  0  0  0
   -0.9919    3.8071    0.0000 C   0  0  0  0  0  0  0  0  0  0  0  0
   -0.2132    5.0892    0.0000 O   0  0  0  0  0  0  0  0  0  0  0  0
   -2.4915    3.8404    0.0000 O   0  0  0  0  0  0  0  0  0  0  0  0
  1  2  1  0
  2  3  1  0
  3  4  1  0
  2  5  1  0
  5  6  1  0
  1  7  1  0
  7  8  1  0
  8  9  2  0
  9 10  1  0
 10 11  1  0
 11 12  1  0
 12 13  1  0
 13 14  1  0
 13 15  2  0
 11 16  1  0
 16 17  1  0
 17 18  1  0
 18 19  2  0
 18 20  1  0
  9 21  1  0
 21 22  1  0
 21 23  2  0
 16  7  1  0
M  END
>  <IC50>  (477) 
0.001

>  <cmpdNO>  (477) 
1236

$$$$

     RDKit          2D

 24 24  0  0  0  0  0  0  0  0999 V2000
   -1.6857   -4.0416    0.0000 O   0  0  0  0  0  0  0  0  0  0  0  0
   -0.2716   -3.5411    0.0000 C   0  0  0  0  0  0  0  0  0  0  0  0
    0.8688   -4.5155    0.0000 O   0  0  0  0  0  0  0  0  0  0  0  0
    0.0020   -2.0663    0.0000 C   0  0  0  0  0  0  0  0  0  0  0  0
   -1.1384   -1.0919    0.0000 N   0  0  0  0  0  0  0  0  0  0  0  0
   -0.8648    0.3829    0.0000 N   0  0  0  0  0  0  0  0  0  0  0  0
   -2.0052    1.3573    0.0000 C   0  0  0  0  0  0  0  0  0  0  0  0
   -1.7316    2.8321    0.0000 O   0  0  0  0  0  0  0  0  0  0  0  0
   -3.4193    0.8568    0.0000 C   0  0  0  0  0  0  0  0  0  0  0  0
   -4.5597    1.8312    0.0000 C   0  0  0  0  0  0  0  0  0  0  0  0
   -5.9738    1.3308    0.0000 C   0  0  0  0  0  0  0  0  0  0  0  0
   -3.6929   -0.6180    0.0000 C   0  0  0  0  0  0  0  0  0  0  0  0
   -5.1070   -1.1184    0.0000 C   0  0  0  0  0  0  0  0  0  0  0  0
    0.5492    0.8834    0.0000 C   0  0  0  0  0  0  0  0  0  0  0  0
    0.8229    2.3582    0.0000 N   0  0  0  0  0  0  0  0  0  0  0  0
    2.2369    2.8587    0.0000 C   0  0  0  0  0  0  0  0  0  0  0  0
    3.3773    1.8843    0.0000 O   0  0  0  0  0  0  0  0  0  0  0  0
    2.5105    4.3335    0.0000 C   0  0  0  0  0  0  0  0  0  0  0  0
    1.6897   -0.0910    0.0000 C   0  0  0  0  0  0  0  0  0  0  0  0
    3.1037    0.4095    0.0000 N   0  0  0  0  0  0  0  0  0  0  0  0
    4.2442   -0.5649    0.0000 C   0  0  0  0  0  0  0  0  0  0  0  0
    5.6582   -0.0645    0.0000 N   0  0  0  0  0  0  0  0  0  0  0  0
    3.9705   -2.0397    0.0000 N   0  0  0  0  0  0  0  0  0  0  0  0
    1.4161   -1.5658    0.0000 C   0  0  0  0  0  0  0  0  0  0  0  0
  1  2  1  0
  2  3  2  0
  2  4  1  0
  4  5  2  0
  5  6  1  0
  6  7  1  0
  7  8  2  0
  7  9  1  0
  9 10  1  0
 10 11  1  0
  9 12  1  0
 12 13  1  0
  6 14  1  0
 14 15  1  0
 15 16  1  0
 16 17  2  0
 16 18  1  0
 14 19  1  0
 19 20  1  0
 20 21  1  0
 21 22  1  0
 21 23  2  0
 19 24  1  0
 24  4  1  0
M  END
>  <IC50>  (478) 
0.14

>  <cmpdNO>  (478) 
1238

$$$$

     RDKit          2D

 68 79  0  0  0  0  0  0  0  0999 V2000
   -6.1745    1.7138    0.0000 O   0  0  0  0  0  0  0  0  0  0  0  0
   -4.9966    2.6426    0.0000 C   0  0  0  0  0  0  0  0  0  0  0  0
   -3.7493    1.8094    0.0000 C   0  0  0  0  0  0  0  0  0  0  0  0
   -4.1562    0.3657    0.0000 C   0  0  0  0  0  0  0  0  0  0  0  0
   -5.6551    0.3065    0.0000 C   0  0  0  0  0  0  0  0  0  0  0  0
   -6.4882   -0.9408    0.0000 C   0  0  0  0  0  0  0  0  0  0  0  0
   -7.9850   -0.8429    0.0000 C   0  0  0  0  0  0  0  0  0  0  0  0
   -8.8182   -2.0903    0.0000 C   0  0  0  0  0  0  0  0  0  0  0  0
   -8.1545   -3.4355    0.0000 C   0  0  0  0  0  0  0  0  0  0  0  0
   -8.9877   -4.6828    0.0000 O   0  0  0  0  0  0  0  0  0  0  0  0
   -6.6577   -3.5333    0.0000 C   0  0  0  0  0  0  0  0  0  0  0  0
   -5.8246   -2.2860    0.0000 C   0  0  0  0  0  0  0  0  0  0  0  0
   -3.2274   -0.8122    0.0000 C   0  0  0  0  0  0  0  0  0  0  0  0
   -1.7430   -0.5967    0.0000 C   0  0  0  0  0  0  0  0  0  0  0  0
   -0.8141   -1.7745    0.0000 C   0  0  0  0  0  0  0  0  0  0  0  0
   -0.0210   -1.8543    0.0000 O   0  0  0  0  0  0  0  0  0  0  0  0
   -1.3697   -3.1678    0.0000 C   0  0  0  0  0  0  0  0  0  0  0  0
   -2.8542   -3.3833    0.0000 C   0  0  0  0  0  0  0  0  0  0  0  0
   -3.4098   -4.7766    0.0000 O   0  0  0  0  0  0  0  0  0  0  0  0
   -3.7830   -2.2055    0.0000 C   0  0  0  0  0  0  0  0  0  0  0  0
   -2.4041    2.4731    0.0000 C   0  0  0  0  0  0  0  0  0  0  0  0
   -2.3062    3.9699    0.0000 C   0  0  0  0  0  0  0  0  0  0  0  0
   -3.5536    4.8030    0.0000 C   0  0  0  0  0  0  0  0  0  0  0  0
   -3.4557    6.2998    0.0000 O   0  0  0  0  0  0  0  0  0  0  0  0
   -4.8988    4.1394    0.0000 C   0  0  0  0  0  0  0  0  0  0  0  0
   -1.1568    1.6399    0.0000 C   0  0  0  0  0  0  0  0  0  0  0  0
   -1.0976    0.1411    0.0000 C   0  0  0  0  0  0  0  0  0  0  0  0
    0.3461   -0.2659    0.0000 C   0  0  0  0  0  0  0  0  0  0  0  0
    1.1793    0.9815    0.0000 C   0  0  0  0  0  0  0  0  0  0  0  0
    0.2504    2.1593    0.0000 C   0  0  0  0  0  0  0  0  0  0  0  0
    0.6574    3.6031    0.0000 C   0  0  0  0  0  0  0  0  0  0  0  0
    2.1112    3.9725    0.0000 C   0  0  0  0  0  0  0  0  0  0  0  0
    2.5181    5.4163    0.0000 C   0  0  0  0  0  0  0  0  0  0  0  0
    1.4712    6.4906    0.0000 C   0  0  0  0  0  0  0  0  0  0  0  0
    1.8782    7.9343    0.0000 O   0  0  0  0  0  0  0  0  0  0  0  0
    0.0174    6.1211    0.0000 C   0  0  0  0  0  0  0  0  0  0  0  0
   -0.3895    4.6773    0.0000 C   0  0  0  0  0  0  0  0  0  0  0  0
    2.6739    1.1078    0.0000 C   0  0  0  0  0  0  0  0  0  0  0  0
    3.7046    0.0180    0.0000 C   0  0  0  0  0  0  0  0  0  0  0  0
    3.4952   -1.4673    0.0000 C   0  0  0  0  0  0  0  0  0  0  0  0
    2.2033   -2.2296    0.0000 C   0  0  0  0  0  0  0  0  0  0  0  0
    0.8019   -1.6949    0.0000 C   0  0  0  0  0  0  0  0  0  0  0  0
   -0.1398   -2.8626    0.0000 C   0  0  0  0  0  0  0  0  0  0  0  0
    0.6798   -4.1189    0.0000 O   0  0  0  0  0  0  0  0  0  0  0  0
    2.1279   -3.7278    0.0000 C   0  0  0  0  0  0  0  0  0  0  0  0
    3.2955   -4.6694    0.0000 C   0  0  0  0  0  0  0  0  0  0  0  0
    3.0638   -6.1514    0.0000 C   0  0  0  0  0  0  0  0  0  0  0  0
    4.2315   -7.0930    0.0000 C   0  0  0  0  0  0  0  0  0  0  0  0
    5.6307   -6.5526    0.0000 C   0  0  0  0  0  0  0  0  0  0  0  0
    6.7984   -7.4942    0.0000 O   0  0  0  0  0  0  0  0  0  0  0  0
    5.8624   -5.0706    0.0000 C   0  0  0  0  0  0  0  0  0  0  0  0
    4.6948   -4.1290    0.0000 C   0  0  0  0  0  0  0  0  0  0  0  0
   -1.6516   -2.3972    0.0000 C   0  0  0  0  0  0  0  0  0  0  0  0
   -2.1074   -0.9682    0.0000 C   0  0  0  0  0  0  0  0  0  0  0  0
   -3.6067   -1.0124    0.0000 O   0  0  0  0  0  0  0  0  0  0  0  0
    4.6768   -2.3914    0.0000 C   0  0  0  0  0  0  0  0  0  0  0  0
    6.0678   -1.8301    0.0000 C   0  0  0  0  0  0  0  0  0  0  0  0
    7.2494   -2.7541    0.0000 O   0  0  0  0  0  0  0  0  0  0  0  0
    6.2772   -0.3448    0.0000 C   0  0  0  0  0  0  0  0  0  0  0  0
    5.0956    0.5792    0.0000 C   0  0  0  0  0  0  0  0  0  0  0  0
    5.3051    2.0645    0.0000 O   0  0  0  0  0  0  0  0  0  0  0  0
    3.2087    2.5093    0.0000 C   0  0  0  0  0  0  0  0  0  0  0  0
    4.6897    2.7469    0.0000 C   0  0  0  0  0  0  0  0  0  0  0  0
    5.2244    4.1484    0.0000 C   0  0  0  0  0  0  0  0  0  0  0  0
    4.2781    5.3122    0.0000 C   0  0  0  0  0  0  0  0  0  0  0  0
    4.8128    6.7136    0.0000 O   0  0  0  0  0  0  0  0  0  0  0  0
    2.7970    5.0745    0.0000 C   0  0  0  0  0  0  0  0  0  0  0  0
    2.2623    3.6731    0.0000 C   0  0  0  0  0  0  0  0  0  0  0  0
  1  2  1  0
  2  3  2  0
  3  4  1  0
  4  5  1  0
  5  6  1  0
  6  7  2  0
  7  8  1  0
  8  9  2  0
  9 10  1  0
  9 11  1  0
 11 12  2  0
  4 13  1  0
 13 14  2  0
 14 15  1  0
 15 16  1  0
 15 17  2  0
 17 18  1  0
 18 19  1  0
 18 20  2  0
  3 21  1  0
 21 22  2  0
 22 23  1  0
 23 24  1  0
 23 25  2  0
 21 26  1  0
 26 27  1  0
 27 28  2  0
 28 29  1  0
 29 30  1  0
 30 31  1  0
 31 32  2  0
 32 33  1  0
 33 34  2  0
 34 35  1  0
 34 36  1  0
 36 37  2  0
 29 38  1  0
 38 39  1  0
 39 40  2  0
 40 41  1  0
 41 42  1  0
 42 43  2  0
 43 44  1  0
 44 45  1  0
 45 46  1  0
 46 47  2  0
 47 48  1  0
 48 49  2  0
 49 50  1  0
 49 51  1  0
 51 52  2  0
 43 53  1  0
 53 54  2  0
 54 55  1  0
 40 56  1  0
 56 57  2  0
 57 58  1  0
 57 59  1  0
 59 60  2  0
 60 61  1  0
 38 62  1  0
 62 63  2  0
 63 64  1  0
 64 65  2  0
 65 66  1  0
 65 67  1  0
 67 68  2  0
  5  1  1  0
 12  6  1  0
 20 13  1  0
 30 26  1  0
 37 31  1  0
 60 39  1  0
 68 62  1  0
 25  2  1  0
 54 27  1  0
 42 28  1  0
 52 46  1  0
 45 41  1  0
M  END
>  <IC50>  (479) 
8.94

>  <cmpdNO>  (479) 
1240

$$$$
